/*---------------------------------------------------------------------------*\
  =========                 |
  \\      /  F ield         | OpenFOAM: The Open Source CFD Toolbox
   \\    /   O peration     | Website:  https://openfoam.org
    \\  /    A nd           | Version:  7
     \\/     M anipulation  |
\*---------------------------------------------------------------------------*/
Build  : 7-63349425784a
Exec   : porousSimpleFoam -parallel
Date   : Mar 19 2021
Time   : 21:51:15
Host   : "gera-t420"
PID    : 3618
I/O    : uncollated
Case   : /home/gera-t420/OpenFOAM/gera_7/run/01_VRFB/tailoring_effect/01_cases/vrfb_elec_tailor_ft_h_p
nProcs : 4
Slaves : 
3
(
"gera-t420.3619"
"gera-t420.3620"
"gera-t420.3622"
)

Pstream initialized with:
    floatTransfer      : 0
    nProcsSimpleSum    : 0
    commsType          : nonBlocking
    polling iterations : 0
sigFpe : Enabling floating point exception trapping (FOAM_SIGFPE).
fileModificationChecking : Monitoring run-time modified files using timeStampMaster (fileModificationSkew 10)
allowSystemOperations : Allowing user-supplied system call operations

// * * * * * * * * * * * * * * * * * * * * * * * * * * * * * * * * * * * * * //
Create time

Create mesh for time = 0


SIMPLE: Convergence criteria found
        p: tolerance 1e-06
        U: tolerance 1e-07

Reading field p

Reading field U

Reading/calculating face flux field phi

Selecting incompressible transport model Newtonian
Selecting turbulence model type laminar
Selecting laminar stress model Stokes
No MRF models present

No finite volume options present
Creating porosity model list from porosityProperties

Porosity region electrode:
    selecting model: DarcyForchheimer
    creating porous zone: electrode
Using pressure explicit porosity

Starting time loop

Time = 1

smoothSolver:  Solving for Ux, Initial residual = 0.000489061, Final residual = 2.98396e-05, No Iterations 2
smoothSolver:  Solving for Uy, Initial residual = 1, Final residual = 0.0269739, No Iterations 4
smoothSolver:  Solving for Uz, Initial residual = 0.00174276, Final residual = 0.000123434, No Iterations 2
GAMG:  Solving for p, Initial residual = 1, Final residual = 0.0470056, No Iterations 403
GAMG:  Solving for p, Initial residual = 1.67214e-07, Final residual = 9.55266e-09, No Iterations 220
GAMG:  Solving for p, Initial residual = 9.5303e-09, Final residual = 9.5303e-09, No Iterations 0
GAMG:  Solving for p, Initial residual = 9.5303e-09, Final residual = 9.5303e-09, No Iterations 0
GAMG:  Solving for p, Initial residual = 9.5303e-09, Final residual = 9.5303e-09, No Iterations 0
time step continuity errors : sum local = 0.011302, global = -0.00032937, cumulative = -0.00032937
ExecutionTime = 14.97 s  ClockTime = 17 s

Time = 2

smoothSolver:  Solving for Ux, Initial residual = 0.361218, Final residual = 0.0101271, No Iterations 2
smoothSolver:  Solving for Uy, Initial residual = 0.0932356, Final residual = 0.00382147, No Iterations 4
smoothSolver:  Solving for Uz, Initial residual = 0.368111, Final residual = 0.0080815, No Iterations 4
GAMG:  Solving for p, Initial residual = 6.664e-05, Final residual = 3.00552e-06, No Iterations 255
GAMG:  Solving for p, Initial residual = 1.10874e-06, Final residual = 4.02657e-08, No Iterations 254
GAMG:  Solving for p, Initial residual = 3.98397e-08, Final residual = 9.58749e-09, No Iterations 110
GAMG:  Solving for p, Initial residual = 9.58458e-09, Final residual = 9.58458e-09, No Iterations 0
GAMG:  Solving for p, Initial residual = 9.58458e-09, Final residual = 9.58458e-09, No Iterations 0
time step continuity errors : sum local = 0.00620572, global = -0.000477527, cumulative = -0.000806897
ExecutionTime = 29.26 s  ClockTime = 33 s

Time = 3

smoothSolver:  Solving for Ux, Initial residual = 0.207236, Final residual = 0.00579113, No Iterations 2
smoothSolver:  Solving for Uy, Initial residual = 0.0323745, Final residual = 0.00133947, No Iterations 4
smoothSolver:  Solving for Uz, Initial residual = 0.18644, Final residual = 0.0040215, No Iterations 4
GAMG:  Solving for p, Initial residual = 5.0622e-05, Final residual = 2.13193e-06, No Iterations 139
GAMG:  Solving for p, Initial residual = 1.74605e-06, Final residual = 7.0104e-08, No Iterations 262
GAMG:  Solving for p, Initial residual = 6.87822e-08, Final residual = 6.80687e-09, No Iterations 190
GAMG:  Solving for p, Initial residual = 6.80206e-09, Final residual = 6.80206e-09, No Iterations 0
GAMG:  Solving for p, Initial residual = 6.80206e-09, Final residual = 6.80206e-09, No Iterations 0
time step continuity errors : sum local = 0.00307299, global = -0.000199746, cumulative = -0.00100664
ExecutionTime = 43.06 s  ClockTime = 49 s

regIOobject::readIfModified() : 
    Re-reading object fvSolution from file "/home/gera-t420/OpenFOAM/gera_7/run/01_VRFB/tailoring_effect/01_cases/vrfb_elec_tailor_ft_h_p/system/fvSolution"
Time = 4

smoothSolver:  Solving for Ux, Initial residual = 0.115516, Final residual = 0.00339432, No Iterations 2
smoothSolver:  Solving for Uy, Initial residual = 0.00435052, Final residual = 0.000171475, No Iterations 4
smoothSolver:  Solving for Uz, Initial residual = 0.0723081, Final residual = 0.00578332, No Iterations 2
GAMG:  Solving for p, Initial residual = 3.29795e-05, Final residual = 1.24716e-06, No Iterations 181
GAMG:  Solving for p, Initial residual = 1.62589e-06, Final residual = 6.72308e-08, No Iterations 270
GAMG:  Solving for p, Initial residual = 6.85111e-08, Final residual = 6.90492e-09, No Iterations 196
time step continuity errors : sum local = 0.0019933, global = 0.000116756, cumulative = -0.000889886
ExecutionTime = 56.33 s  ClockTime = 62 s

Time = 5

smoothSolver:  Solving for Ux, Initial residual = 0.055899, Final residual = 0.00196951, No Iterations 2
smoothSolver:  Solving for Uy, Initial residual = 0.0137072, Final residual = 0.000515862, No Iterations 4
smoothSolver:  Solving for Uz, Initial residual = 0.0562832, Final residual = 0.00122217, No Iterations 4
GAMG:  Solving for p, Initial residual = 4.32596e-05, Final residual = 2.07116e-06, No Iterations 182
GAMG:  Solving for p, Initial residual = 3.33083e-06, Final residual = 1.40539e-07, No Iterations 272
GAMG:  Solving for p, Initial residual = 1.46178e-07, Final residual = 9.13289e-09, No Iterations 240
time step continuity errors : sum local = 0.00192484, global = 0.00010459, cumulative = -0.000785297
ExecutionTime = 73.03 s  ClockTime = 83 s

Time = 6

smoothSolver:  Solving for Ux, Initial residual = 0.018226, Final residual = 0.00108118, No Iterations 2
smoothSolver:  Solving for Uy, Initial residual = 0.0163596, Final residual = 0.000618637, No Iterations 4
smoothSolver:  Solving for Uz, Initial residual = 0.0522428, Final residual = 0.00141827, No Iterations 4
GAMG:  Solving for p, Initial residual = 4.76117e-05, Final residual = 1.91295e-06, No Iterations 180
GAMG:  Solving for p, Initial residual = 2.89916e-06, Final residual = 1.21991e-07, No Iterations 272
GAMG:  Solving for p, Initial residual = 1.26305e-07, Final residual = 8.01353e-09, No Iterations 238
time step continuity errors : sum local = 0.00159885, global = 9.1743e-05, cumulative = -0.000693554
ExecutionTime = 89.99 s  ClockTime = 105 s

Time = 7

smoothSolver:  Solving for Ux, Initial residual = 0.0218782, Final residual = 0.000655989, No Iterations 2
smoothSolver:  Solving for Uy, Initial residual = 0.00494874, Final residual = 0.000170939, No Iterations 4
smoothSolver:  Solving for Uz, Initial residual = 0.0345564, Final residual = 0.000840304, No Iterations 4
GAMG:  Solving for p, Initial residual = 3.64613e-05, Final residual = 1.76952e-06, No Iterations 143
GAMG:  Solving for p, Initial residual = 2.21704e-06, Final residual = 9.14788e-08, No Iterations 270
GAMG:  Solving for p, Initial residual = 9.39378e-08, Final residual = 9.52445e-09, No Iterations 196
time step continuity errors : sum local = 0.00209161, global = 0.000118375, cumulative = -0.000575179
ExecutionTime = 104.31 s  ClockTime = 122 s

Time = 8

smoothSolver:  Solving for Ux, Initial residual = 0.0242742, Final residual = 0.000540182, No Iterations 2
smoothSolver:  Solving for Uy, Initial residual = 0.0125326, Final residual = 0.000520248, No Iterations 4
smoothSolver:  Solving for Uz, Initial residual = 0.0363142, Final residual = 0.000897974, No Iterations 4
GAMG:  Solving for p, Initial residual = 4.08025e-05, Final residual = 1.67796e-06, No Iterations 69
GAMG:  Solving for p, Initial residual = 1.78161e-06, Final residual = 7.5873e-08, No Iterations 260
GAMG:  Solving for p, Initial residual = 7.75125e-08, Final residual = 7.86286e-09, No Iterations 194
time step continuity errors : sum local = 0.00191667, global = 0.000106062, cumulative = -0.000469117
ExecutionTime = 115.5 s  ClockTime = 135 s

Time = 9

smoothSolver:  Solving for Ux, Initial residual = 0.020016, Final residual = 0.000481692, No Iterations 2
smoothSolver:  Solving for Uy, Initial residual = 0.00702267, Final residual = 0.000290325, No Iterations 4
smoothSolver:  Solving for Uz, Initial residual = 0.0257734, Final residual = 0.000626791, No Iterations 4
GAMG:  Solving for p, Initial residual = 3.58327e-05, Final residual = 1.42993e-06, No Iterations 9
GAMG:  Solving for p, Initial residual = 1.42914e-06, Final residual = 7.0474e-08, No Iterations 152
GAMG:  Solving for p, Initial residual = 6.98122e-08, Final residual = 7.40685e-09, No Iterations 186
time step continuity errors : sum local = 0.00192842, global = -0.000114454, cumulative = -0.000583571
ExecutionTime = 122.96 s  ClockTime = 142 s

Time = 10

smoothSolver:  Solving for Ux, Initial residual = 0.0137404, Final residual = 0.000413819, No Iterations 2
smoothSolver:  Solving for Uy, Initial residual = 0.00280002, Final residual = 0.000118845, No Iterations 4
smoothSolver:  Solving for Uz, Initial residual = 0.0167663, Final residual = 0.000428713, No Iterations 4
GAMG:  Solving for p, Initial residual = 2.67994e-05, Final residual = 7.86642e-07, No Iterations 75
GAMG:  Solving for p, Initial residual = 7.61788e-07, Final residual = 3.12744e-08, No Iterations 260
GAMG:  Solving for p, Initial residual = 3.10076e-08, Final residual = 7.7902e-09, No Iterations 116
time step continuity errors : sum local = 0.00209339, global = -0.000120377, cumulative = -0.000703949
ExecutionTime = 134.57 s  ClockTime = 156 s

regIOobject::readIfModified() : 
    Re-reading object fvSolution from file "/home/gera-t420/OpenFOAM/gera_7/run/01_VRFB/tailoring_effect/01_cases/vrfb_elec_tailor_ft_h_p/system/fvSolution"
Time = 11

smoothSolver:  Solving for Ux, Initial residual = 0.00871004, Final residual = 0.000375357, No Iterations 2
smoothSolver:  Solving for Uy, Initial residual = 0.00601029, Final residual = 0.000250468, No Iterations 4
smoothSolver:  Solving for Uz, Initial residual = 0.0158163, Final residual = 0.000456371, No Iterations 4
GAMG:  Solving for p, Initial residual = 2.80252e-05, Final residual = 1.37786e-06, No Iterations 48
time step continuity errors : sum local = 0.3588, global = -0.000504493, cumulative = -0.00120844
ExecutionTime = 136.07 s  ClockTime = 158 s

Time = 12

smoothSolver:  Solving for Ux, Initial residual = 0.00629737, Final residual = 0.000347682, No Iterations 2
smoothSolver:  Solving for Uy, Initial residual = 0.00678765, Final residual = 0.000157953, No Iterations 4
smoothSolver:  Solving for Uz, Initial residual = 0.01481, Final residual = 0.000336743, No Iterations 4
GAMG:  Solving for p, Initial residual = 2.30635e-05, Final residual = 1.14786e-06, No Iterations 44
time step continuity errors : sum local = 0.299761, global = 0.00140429, cumulative = 0.000195853
ExecutionTime = 137.3 s  ClockTime = 159 s

Time = 13

smoothSolver:  Solving for Ux, Initial residual = 0.0054879, Final residual = 0.000319672, No Iterations 2
smoothSolver:  Solving for Uy, Initial residual = 0.00611338, Final residual = 0.000122555, No Iterations 4
smoothSolver:  Solving for Uz, Initial residual = 0.0123577, Final residual = 0.000285819, No Iterations 4
GAMG:  Solving for p, Initial residual = 1.90943e-05, Final residual = 9.50514e-07, No Iterations 18
time step continuity errors : sum local = 0.247885, global = -0.00135217, cumulative = -0.00115632
ExecutionTime = 138.06 s  ClockTime = 160 s

Time = 14

smoothSolver:  Solving for Ux, Initial residual = 0.00499682, Final residual = 0.000290138, No Iterations 2
smoothSolver:  Solving for Uy, Initial residual = 0.00567485, Final residual = 0.000165604, No Iterations 4
smoothSolver:  Solving for Uz, Initial residual = 0.00948757, Final residual = 0.000247998, No Iterations 4
GAMG:  Solving for p, Initial residual = 1.86554e-05, Final residual = 9.05904e-07, No Iterations 37
time step continuity errors : sum local = 0.235365, global = 0.136232, cumulative = 0.135075
ExecutionTime = 139.17 s  ClockTime = 161 s

Time = 15

smoothSolver:  Solving for Ux, Initial residual = 0.00443757, Final residual = 0.000261818, No Iterations 2
smoothSolver:  Solving for Uy, Initial residual = 0.00254105, Final residual = 7.25833e-05, No Iterations 4
smoothSolver:  Solving for Uz, Initial residual = 0.00745515, Final residual = 0.00017408, No Iterations 4
GAMG:  Solving for p, Initial residual = 1.43377e-05, Final residual = 6.98729e-07, No Iterations 10
time step continuity errors : sum local = 0.180047, global = 7.30614e-05, cumulative = 0.135148
ExecutionTime = 139.7 s  ClockTime = 161 s

Time = 16

smoothSolver:  Solving for Ux, Initial residual = 0.00396343, Final residual = 0.000235002, No Iterations 2
smoothSolver:  Solving for Uy, Initial residual = 0.00355409, Final residual = 8.43323e-05, No Iterations 4
smoothSolver:  Solving for Uz, Initial residual = 0.00721741, Final residual = 0.000158795, No Iterations 4
GAMG:  Solving for p, Initial residual = 1.26815e-05, Final residual = 6.22835e-07, No Iterations 14
time step continuity errors : sum local = 0.16003, global = 0.000491396, cumulative = 0.13564
ExecutionTime = 140.53 s  ClockTime = 163 s

Time = 17

smoothSolver:  Solving for Ux, Initial residual = 0.00357714, Final residual = 0.00020876, No Iterations 2
smoothSolver:  Solving for Uy, Initial residual = 0.00470913, Final residual = 9.91033e-05, No Iterations 4
smoothSolver:  Solving for Uz, Initial residual = 0.00670146, Final residual = 0.000141782, No Iterations 4
GAMG:  Solving for p, Initial residual = 1.21976e-05, Final residual = 6.03356e-07, No Iterations 31
time step continuity errors : sum local = 0.153717, global = -0.000163175, cumulative = 0.135477
ExecutionTime = 141.87 s  ClockTime = 164 s

Time = 18

smoothSolver:  Solving for Ux, Initial residual = 0.00331545, Final residual = 0.000183102, No Iterations 2
smoothSolver:  Solving for Uy, Initial residual = 0.00427252, Final residual = 0.000291557, No Iterations 2
smoothSolver:  Solving for Uz, Initial residual = 0.00545115, Final residual = 0.000107339, No Iterations 4
GAMG:  Solving for p, Initial residual = 9.80868e-06, Final residual = 2.63606e-07, No Iterations 72
time step continuity errors : sum local = 0.0665555, global = 0.00334288, cumulative = 0.138819
ExecutionTime = 143.94 s  ClockTime = 167 s

Time = 19

smoothSolver:  Solving for Ux, Initial residual = 0.00316524, Final residual = 0.000159204, No Iterations 2
smoothSolver:  Solving for Uy, Initial residual = 0.00357866, Final residual = 0.000334669, No Iterations 2
smoothSolver:  Solving for Uz, Initial residual = 0.00418189, Final residual = 0.000105734, No Iterations 4
GAMG:  Solving for p, Initial residual = 8.95722e-06, Final residual = 2.682e-07, No Iterations 64
time step continuity errors : sum local = 0.0671669, global = 0.00361685, cumulative = 0.142436
ExecutionTime = 145.51 s  ClockTime = 169 s

Time = 20

smoothSolver:  Solving for Ux, Initial residual = 0.00291397, Final residual = 0.000140845, No Iterations 2
smoothSolver:  Solving for Uy, Initial residual = 0.00301343, Final residual = 6.46048e-05, No Iterations 4
smoothSolver:  Solving for Uz, Initial residual = 0.00353921, Final residual = 8.81292e-05, No Iterations 4
GAMG:  Solving for p, Initial residual = 8.38347e-06, Final residual = 2.4525e-07, No Iterations 60
time step continuity errors : sum local = 0.0609965, global = 0.00281562, cumulative = 0.145252
ExecutionTime = 147.02 s  ClockTime = 170 s

Time = 21

smoothSolver:  Solving for Ux, Initial residual = 0.00261191, Final residual = 0.000126302, No Iterations 2
smoothSolver:  Solving for Uy, Initial residual = 0.00199843, Final residual = 0.00019301, No Iterations 2
smoothSolver:  Solving for Uz, Initial residual = 0.00301967, Final residual = 7.13711e-05, No Iterations 4
GAMG:  Solving for p, Initial residual = 6.65098e-06, Final residual = 2.37222e-07, No Iterations 49
time step continuity errors : sum local = 0.0586089, global = 0.00297321, cumulative = 0.148225
ExecutionTime = 148.48 s  ClockTime = 172 s

Time = 22

smoothSolver:  Solving for Ux, Initial residual = 0.00230478, Final residual = 0.000114014, No Iterations 2
smoothSolver:  Solving for Uy, Initial residual = 0.00180936, Final residual = 4.66501e-05, No Iterations 4
smoothSolver:  Solving for Uz, Initial residual = 0.00262037, Final residual = 7.11672e-05, No Iterations 4
GAMG:  Solving for p, Initial residual = 6.20629e-06, Final residual = 2.76829e-07, No Iterations 32
time step continuity errors : sum local = 0.0679305, global = -0.000501175, cumulative = 0.147724
ExecutionTime = 149.55 s  ClockTime = 173 s

Time = 23

smoothSolver:  Solving for Ux, Initial residual = 0.00202817, Final residual = 0.000102326, No Iterations 2
smoothSolver:  Solving for Uy, Initial residual = 0.00134348, Final residual = 4.16473e-05, No Iterations 4
smoothSolver:  Solving for Uz, Initial residual = 0.00196224, Final residual = 5.90321e-05, No Iterations 4
GAMG:  Solving for p, Initial residual = 5.86375e-06, Final residual = 1.68586e-07, No Iterations 55
time step continuity errors : sum local = 0.0410699, global = 0.00249592, cumulative = 0.15022
ExecutionTime = 151.32 s  ClockTime = 176 s

Time = 24

smoothSolver:  Solving for Ux, Initial residual = 0.00180562, Final residual = 9.12886e-05, No Iterations 2
smoothSolver:  Solving for Uy, Initial residual = 0.0011894, Final residual = 3.07446e-05, No Iterations 4
smoothSolver:  Solving for Uz, Initial residual = 0.00175494, Final residual = 5.09233e-05, No Iterations 4
GAMG:  Solving for p, Initial residual = 4.65612e-06, Final residual = 2.293e-07, No Iterations 35
time step continuity errors : sum local = 0.0554967, global = -0.000353186, cumulative = 0.149867
ExecutionTime = 152.55 s  ClockTime = 177 s

Time = 25

smoothSolver:  Solving for Ux, Initial residual = 0.0016073, Final residual = 8.1565e-05, No Iterations 2
smoothSolver:  Solving for Uy, Initial residual = 0.0011824, Final residual = 3.58408e-05, No Iterations 4
smoothSolver:  Solving for Uz, Initial residual = 0.00162544, Final residual = 5.05221e-05, No Iterations 4
GAMG:  Solving for p, Initial residual = 4.31771e-06, Final residual = 2.14611e-07, No Iterations 35
time step continuity errors : sum local = 0.0516227, global = 0.0006784, cumulative = 0.150545
ExecutionTime = 153.61 s  ClockTime = 179 s

Time = 26

smoothSolver:  Solving for Ux, Initial residual = 0.00143421, Final residual = 7.31935e-05, No Iterations 2
smoothSolver:  Solving for Uy, Initial residual = 0.00102327, Final residual = 3.11214e-05, No Iterations 4
smoothSolver:  Solving for Uz, Initial residual = 0.00141278, Final residual = 4.26756e-05, No Iterations 4
GAMG:  Solving for p, Initial residual = 4.16065e-06, Final residual = 2.07525e-07, No Iterations 34
time step continuity errors : sum local = 0.049623, global = -0.000555229, cumulative = 0.14999
ExecutionTime = 154.64 s  ClockTime = 180 s

Time = 27

smoothSolver:  Solving for Ux, Initial residual = 0.00127973, Final residual = 6.59693e-05, No Iterations 2
smoothSolver:  Solving for Uy, Initial residual = 0.000829542, Final residual = 2.55411e-05, No Iterations 4
smoothSolver:  Solving for Uz, Initial residual = 0.00123094, Final residual = 3.96201e-05, No Iterations 4
GAMG:  Solving for p, Initial residual = 3.58639e-06, Final residual = 1.62668e-07, No Iterations 36
time step continuity errors : sum local = 0.0386743, global = -0.000309787, cumulative = 0.14968
ExecutionTime = 155.83 s  ClockTime = 181 s

Time = 28

smoothSolver:  Solving for Ux, Initial residual = 0.00114735, Final residual = 5.95046e-05, No Iterations 2
smoothSolver:  Solving for Uy, Initial residual = 0.000747863, Final residual = 2.54018e-05, No Iterations 4
smoothSolver:  Solving for Uz, Initial residual = 0.00111099, Final residual = 3.79511e-05, No Iterations 4
GAMG:  Solving for p, Initial residual = 3.3177e-06, Final residual = 1.06131e-07, No Iterations 54
time step continuity errors : sum local = 0.0250776, global = 0.00162174, cumulative = 0.151302
ExecutionTime = 157.29 s  ClockTime = 183 s

Time = 29

smoothSolver:  Solving for Ux, Initial residual = 0.00103401, Final residual = 5.34208e-05, No Iterations 2
smoothSolver:  Solving for Uy, Initial residual = 0.000823824, Final residual = 2.33965e-05, No Iterations 4
smoothSolver:  Solving for Uz, Initial residual = 0.00114785, Final residual = 3.28336e-05, No Iterations 4
GAMG:  Solving for p, Initial residual = 2.98424e-06, Final residual = 1.48021e-07, No Iterations 37
time step continuity errors : sum local = 0.0347582, global = 0.000378812, cumulative = 0.151681
ExecutionTime = 158.4 s  ClockTime = 184 s

Time = 30

smoothSolver:  Solving for Ux, Initial residual = 0.000926836, Final residual = 4.78055e-05, No Iterations 2
smoothSolver:  Solving for Uy, Initial residual = 0.000706662, Final residual = 2.28566e-05, No Iterations 4
smoothSolver:  Solving for Uz, Initial residual = 0.000945545, Final residual = 3.07573e-05, No Iterations 4
GAMG:  Solving for p, Initial residual = 2.60059e-06, Final residual = 7.66195e-08, No Iterations 60
time step continuity errors : sum local = 0.0178808, global = 0.00121355, cumulative = 0.152894
ExecutionTime = 160 s  ClockTime = 185 s

Time = 31

smoothSolver:  Solving for Ux, Initial residual = 0.000834567, Final residual = 4.2749e-05, No Iterations 2
smoothSolver:  Solving for Uy, Initial residual = 0.000784085, Final residual = 2.34417e-05, No Iterations 4
smoothSolver:  Solving for Uz, Initial residual = 0.000946499, Final residual = 2.94814e-05, No Iterations 4
GAMG:  Solving for p, Initial residual = 2.42996e-06, Final residual = 1.16629e-07, No Iterations 35
time step continuity errors : sum local = 0.0270584, global = -1.22438e-05, cumulative = 0.152882
ExecutionTime = 161.1 s  ClockTime = 186 s

Time = 32

smoothSolver:  Solving for Ux, Initial residual = 0.000742984, Final residual = 3.84182e-05, No Iterations 2
smoothSolver:  Solving for Uy, Initial residual = 0.000608499, Final residual = 2.13132e-05, No Iterations 4
smoothSolver:  Solving for Uz, Initial residual = 0.000760951, Final residual = 2.69479e-05, No Iterations 4
GAMG:  Solving for p, Initial residual = 2.29212e-06, Final residual = 1.12419e-07, No Iterations 33
time step continuity errors : sum local = 0.0259288, global = -0.000248476, cumulative = 0.152633
ExecutionTime = 162.1 s  ClockTime = 188 s

Time = 33

smoothSolver:  Solving for Ux, Initial residual = 0.000662084, Final residual = 3.463e-05, No Iterations 2
smoothSolver:  Solving for Uy, Initial residual = 0.000526696, Final residual = 1.9309e-05, No Iterations 4
smoothSolver:  Solving for Uz, Initial residual = 0.000731277, Final residual = 2.60517e-05, No Iterations 4
GAMG:  Solving for p, Initial residual = 2.11561e-06, Final residual = 1.03039e-07, No Iterations 33
time step continuity errors : sum local = 0.0236217, global = -0.000184723, cumulative = 0.152449
ExecutionTime = 163.09 s  ClockTime = 189 s

Time = 34

smoothSolver:  Solving for Ux, Initial residual = 0.000592158, Final residual = 3.12316e-05, No Iterations 2
smoothSolver:  Solving for Uy, Initial residual = 0.000497322, Final residual = 1.83023e-05, No Iterations 4
smoothSolver:  Solving for Uz, Initial residual = 0.000674935, Final residual = 2.41025e-05, No Iterations 4
GAMG:  Solving for p, Initial residual = 2.01478e-06, Final residual = 1.00553e-07, No Iterations 31
time step continuity errors : sum local = 0.0229145, global = 0.000191721, cumulative = 0.15264
ExecutionTime = 164.01 s  ClockTime = 190 s

Time = 35

smoothSolver:  Solving for Ux, Initial residual = 0.000529598, Final residual = 2.81628e-05, No Iterations 2
smoothSolver:  Solving for Uy, Initial residual = 0.000469196, Final residual = 1.78113e-05, No Iterations 4
smoothSolver:  Solving for Uz, Initial residual = 0.000589639, Final residual = 2.17571e-05, No Iterations 4
GAMG:  Solving for p, Initial residual = 1.84734e-06, Final residual = 5.38301e-08, No Iterations 55
time step continuity errors : sum local = 0.0121971, global = 0.000707077, cumulative = 0.153348
ExecutionTime = 165.43 s  ClockTime = 191 s

Time = 36

smoothSolver:  Solving for Ux, Initial residual = 0.000477538, Final residual = 2.52938e-05, No Iterations 2
smoothSolver:  Solving for Uy, Initial residual = 0.000526109, Final residual = 1.77782e-05, No Iterations 4
smoothSolver:  Solving for Uz, Initial residual = 0.000624632, Final residual = 2.07473e-05, No Iterations 4
GAMG:  Solving for p, Initial residual = 1.67663e-06, Final residual = 4.64159e-08, No Iterations 56
time step continuity errors : sum local = 0.0104564, global = 0.000624753, cumulative = 0.153972
ExecutionTime = 166.85 s  ClockTime = 193 s

Time = 37

smoothSolver:  Solving for Ux, Initial residual = 0.000429989, Final residual = 2.27093e-05, No Iterations 2
smoothSolver:  Solving for Uy, Initial residual = 0.000551134, Final residual = 1.73777e-05, No Iterations 4
smoothSolver:  Solving for Uz, Initial residual = 0.000616463, Final residual = 1.96187e-05, No Iterations 4
GAMG:  Solving for p, Initial residual = 1.58946e-06, Final residual = 7.80061e-08, No Iterations 27
time step continuity errors : sum local = 0.0174671, global = -1.77068e-05, cumulative = 0.153955
ExecutionTime = 167.7 s  ClockTime = 194 s

Time = 38

smoothSolver:  Solving for Ux, Initial residual = 0.000381164, Final residual = 2.04981e-05, No Iterations 2
smoothSolver:  Solving for Uy, Initial residual = 0.000436793, Final residual = 1.6192e-05, No Iterations 4
smoothSolver:  Solving for Uz, Initial residual = 0.000485294, Final residual = 1.84194e-05, No Iterations 4
GAMG:  Solving for p, Initial residual = 1.50059e-06, Final residual = 7.2585e-08, No Iterations 28
time step continuity errors : sum local = 0.0161629, global = -3.35332e-05, cumulative = 0.153921
ExecutionTime = 168.57 s  ClockTime = 194 s

Time = 39

smoothSolver:  Solving for Ux, Initial residual = 0.000340912, Final residual = 1.85033e-05, No Iterations 2
smoothSolver:  Solving for Uy, Initial residual = 0.000398329, Final residual = 1.52e-05, No Iterations 4
smoothSolver:  Solving for Uz, Initial residual = 0.000479261, Final residual = 1.78009e-05, No Iterations 4
GAMG:  Solving for p, Initial residual = 1.43225e-06, Final residual = 7.08675e-08, No Iterations 29
time step continuity errors : sum local = 0.0156933, global = -0.000311965, cumulative = 0.153609
ExecutionTime = 169.47 s  ClockTime = 195 s

Time = 40

smoothSolver:  Solving for Ux, Initial residual = 0.000306015, Final residual = 1.66995e-05, No Iterations 2
smoothSolver:  Solving for Uy, Initial residual = 0.000384466, Final residual = 1.45684e-05, No Iterations 4
smoothSolver:  Solving for Uz, Initial residual = 0.000452628, Final residual = 1.65107e-05, No Iterations 4
GAMG:  Solving for p, Initial residual = 1.37969e-06, Final residual = 4.08679e-08, No Iterations 47
time step continuity errors : sum local = 0.00900328, global = 0.00057771, cumulative = 0.154187
ExecutionTime = 170.73 s  ClockTime = 197 s

Time = 41

smoothSolver:  Solving for Ux, Initial residual = 0.000276326, Final residual = 1.50507e-05, No Iterations 2
smoothSolver:  Solving for Uy, Initial residual = 0.000383377, Final residual = 1.42162e-05, No Iterations 4
smoothSolver:  Solving for Uz, Initial residual = 0.000413871, Final residual = 1.52556e-05, No Iterations 4
GAMG:  Solving for p, Initial residual = 1.26548e-06, Final residual = 6.31062e-08, No Iterations 25
time step continuity errors : sum local = 0.0138347, global = -0.000136864, cumulative = 0.15405
ExecutionTime = 171.56 s  ClockTime = 197 s

Time = 42

smoothSolver:  Solving for Ux, Initial residual = 0.000246308, Final residual = 1.36002e-05, No Iterations 2
smoothSolver:  Solving for Uy, Initial residual = 0.00033945, Final residual = 1.37706e-05, No Iterations 4
smoothSolver:  Solving for Uz, Initial residual = 0.000358126, Final residual = 1.43741e-05, No Iterations 4
GAMG:  Solving for p, Initial residual = 1.18354e-06, Final residual = 3.47276e-08, No Iterations 47
time step continuity errors : sum local = 0.00758001, global = 0.000480597, cumulative = 0.15453
ExecutionTime = 172.84 s  ClockTime = 199 s

Time = 43

smoothSolver:  Solving for Ux, Initial residual = 0.000222842, Final residual = 1.22537e-05, No Iterations 2
smoothSolver:  Solving for Uy, Initial residual = 0.000365619, Final residual = 1.32809e-05, No Iterations 4
smoothSolver:  Solving for Uz, Initial residual = 0.000376231, Final residual = 1.3629e-05, No Iterations 4
GAMG:  Solving for p, Initial residual = 1.10506e-06, Final residual = 5.40617e-08, No Iterations 23
time step continuity errors : sum local = 0.0117528, global = 4.2844e-05, cumulative = 0.154573
ExecutionTime = 173.63 s  ClockTime = 200 s

Time = 44

smoothSolver:  Solving for Ux, Initial residual = 0.000198152, Final residual = 1.10923e-05, No Iterations 2
smoothSolver:  Solving for Uy, Initial residual = 0.000312664, Final residual = 1.25533e-05, No Iterations 4
smoothSolver:  Solving for Uz, Initial residual = 0.000317779, Final residual = 1.29114e-05, No Iterations 4
GAMG:  Solving for p, Initial residual = 1.04205e-06, Final residual = 5.14526e-08, No Iterations 25
time step continuity errors : sum local = 0.0111428, global = -0.000210612, cumulative = 0.154363
ExecutionTime = 174.47 s  ClockTime = 201 s

Time = 45

smoothSolver:  Solving for Ux, Initial residual = 0.000177772, Final residual = 1.00361e-05, No Iterations 2
smoothSolver:  Solving for Uy, Initial residual = 0.000294115, Final residual = 1.1935e-05, No Iterations 4
smoothSolver:  Solving for Uz, Initial residual = 0.000311109, Final residual = 1.23197e-05, No Iterations 4
GAMG:  Solving for p, Initial residual = 9.92833e-07, Final residual = 4.87395e-08, No Iterations 24
time step continuity errors : sum local = 0.010516, global = 6.40966e-05, cumulative = 0.154427
ExecutionTime = 175.27 s  ClockTime = 201 s

Time = 46

smoothSolver:  Solving for Ux, Initial residual = 0.000159303, Final residual = 9.08809e-06, No Iterations 2
smoothSolver:  Solving for Uy, Initial residual = 0.000280583, Final residual = 1.14692e-05, No Iterations 4
smoothSolver:  Solving for Uz, Initial residual = 0.000292461, Final residual = 1.15818e-05, No Iterations 4
GAMG:  Solving for p, Initial residual = 9.43806e-07, Final residual = 2.65304e-08, No Iterations 47
time step continuity errors : sum local = 0.00570268, global = 0.000320596, cumulative = 0.154747
ExecutionTime = 176.54 s  ClockTime = 203 s

Time = 47

smoothSolver:  Solving for Ux, Initial residual = 0.000144902, Final residual = 8.20366e-06, No Iterations 2
smoothSolver:  Solving for Uy, Initial residual = 0.000293978, Final residual = 1.11118e-05, No Iterations 4
smoothSolver:  Solving for Uz, Initial residual = 0.000292027, Final residual = 1.08873e-05, No Iterations 4
GAMG:  Solving for p, Initial residual = 8.73366e-07, Final residual = 4.25971e-08, No Iterations 19
time step continuity errors : sum local = 0.00912311, global = 1.70014e-05, cumulative = 0.154764
ExecutionTime = 177.23 s  ClockTime = 203 s

Time = 48

smoothSolver:  Solving for Ux, Initial residual = 0.000128456, Final residual = 7.44851e-06, No Iterations 2
smoothSolver:  Solving for Uy, Initial residual = 0.000258017, Final residual = 1.06347e-05, No Iterations 4
smoothSolver:  Solving for Uz, Initial residual = 0.000251224, Final residual = 1.02866e-05, No Iterations 4
GAMG:  Solving for p, Initial residual = 8.19406e-07, Final residual = 4.0595e-08, No Iterations 21
time step continuity errors : sum local = 0.00866591, global = -0.000104223, cumulative = 0.15466
ExecutionTime = 177.97 s  ClockTime = 204 s

Time = 49

smoothSolver:  Solving for Ux, Initial residual = 0.000115139, Final residual = 6.75659e-06, No Iterations 2
smoothSolver:  Solving for Uy, Initial residual = 0.000236248, Final residual = 1.01198e-05, No Iterations 4
smoothSolver:  Solving for Uz, Initial residual = 0.000230892, Final residual = 9.77719e-06, No Iterations 4
GAMG:  Solving for p, Initial residual = 7.68828e-07, Final residual = 3.79244e-08, No Iterations 24
time step continuity errors : sum local = 0.00807161, global = 0.000165717, cumulative = 0.154826
ExecutionTime = 178.78 s  ClockTime = 205 s

Time = 50

smoothSolver:  Solving for Ux, Initial residual = 0.000103943, Final residual = 6.12461e-06, No Iterations 2
smoothSolver:  Solving for Uy, Initial residual = 0.000221371, Final residual = 9.63576e-06, No Iterations 4
smoothSolver:  Solving for Uz, Initial residual = 0.000218942, Final residual = 9.29033e-06, No Iterations 4
GAMG:  Solving for p, Initial residual = 7.24849e-07, Final residual = 3.61258e-08, No Iterations 22
time step continuity errors : sum local = 0.00766703, global = -0.000150826, cumulative = 0.154675
ExecutionTime = 179.55 s  ClockTime = 206 s

Time = 51

smoothSolver:  Solving for Ux, Initial residual = 9.34436e-05, Final residual = 5.55924e-06, No Iterations 2
smoothSolver:  Solving for Uy, Initial residual = 0.000208672, Final residual = 9.19194e-06, No Iterations 4
smoothSolver:  Solving for Uz, Initial residual = 0.000203326, Final residual = 8.7812e-06, No Iterations 4
GAMG:  Solving for p, Initial residual = 6.88024e-07, Final residual = 3.30868e-08, No Iterations 7
time step continuity errors : sum local = 0.007004, global = 8.3501e-05, cumulative = 0.154759
ExecutionTime = 180 s  ClockTime = 206 s

Time = 52

smoothSolver:  Solving for Ux, Initial residual = 8.10844e-05, Final residual = 5.09098e-06, No Iterations 2
smoothSolver:  Solving for Uy, Initial residual = 0.000205451, Final residual = 8.82521e-06, No Iterations 4
smoothSolver:  Solving for Uz, Initial residual = 0.000202826, Final residual = 8.30678e-06, No Iterations 4
GAMG:  Solving for p, Initial residual = 6.50308e-07, Final residual = 2.03501e-08, No Iterations 43
time step continuity errors : sum local = 0.00429742, global = 0.000248426, cumulative = 0.155007
ExecutionTime = 181.2 s  ClockTime = 207 s

Time = 53

smoothSolver:  Solving for Ux, Initial residual = 7.59135e-05, Final residual = 4.59762e-06, No Iterations 2
smoothSolver:  Solving for Uy, Initial residual = 0.000218585, Final residual = 8.48919e-06, No Iterations 4
smoothSolver:  Solving for Uz, Initial residual = 0.000212088, Final residual = 7.9089e-06, No Iterations 4
GAMG:  Solving for p, Initial residual = 6.10404e-07, Final residual = 1.69885e-08, No Iterations 46
time step continuity errors : sum local = 0.00357915, global = 0.000201705, cumulative = 0.155209
ExecutionTime = 182.45 s  ClockTime = 209 s

Time = 54

smoothSolver:  Solving for Ux, Initial residual = 7.00369e-05, Final residual = 4.15648e-06, No Iterations 2
smoothSolver:  Solving for Uy, Initial residual = 0.00021548, Final residual = 8.12408e-06, No Iterations 4
smoothSolver:  Solving for Uz, Initial residual = 0.000201343, Final residual = 7.53041e-06, No Iterations 4
GAMG:  Solving for p, Initial residual = 5.7528e-07, Final residual = 2.793e-08, No Iterations 5
time step continuity errors : sum local = 0.00587061, global = -8.05807e-05, cumulative = 0.155128
ExecutionTime = 182.86 s  ClockTime = 209 s

Time = 55

smoothSolver:  Solving for Ux, Initial residual = 6.01649e-05, Final residual = 3.81631e-06, No Iterations 2
smoothSolver:  Solving for Uy, Initial residual = 0.000187433, Final residual = 7.73312e-06, No Iterations 4
smoothSolver:  Solving for Uz, Initial residual = 0.000169338, Final residual = 7.14237e-06, No Iterations 4
GAMG:  Solving for p, Initial residual = 5.43936e-07, Final residual = 2.66617e-08, No Iterations 7
time step continuity errors : sum local = 0.00559194, global = 4.83991e-05, cumulative = 0.155177
ExecutionTime = 183.32 s  ClockTime = 210 s

Time = 56

smoothSolver:  Solving for Ux, Initial residual = 5.29532e-05, Final residual = 3.49861e-06, No Iterations 2
smoothSolver:  Solving for Uy, Initial residual = 0.000170594, Final residual = 7.37651e-06, No Iterations 4
smoothSolver:  Solving for Uz, Initial residual = 0.00016062, Final residual = 6.82459e-06, No Iterations 4
GAMG:  Solving for p, Initial residual = 5.15938e-07, Final residual = 2.55296e-08, No Iterations 23
time step continuity errors : sum local = 0.00534345, global = 3.14277e-05, cumulative = 0.155208
ExecutionTime = 184.1 s  ClockTime = 210 s

Time = 57

smoothSolver:  Solving for Ux, Initial residual = 4.94904e-05, Final residual = 3.17405e-06, No Iterations 2
smoothSolver:  Solving for Uy, Initial residual = 0.000161529, Final residual = 7.04925e-06, No Iterations 4
smoothSolver:  Solving for Uz, Initial residual = 0.000163569, Final residual = 6.50749e-06, No Iterations 4
GAMG:  Solving for p, Initial residual = 4.91802e-07, Final residual = 1.35042e-08, No Iterations 46
time step continuity errors : sum local = 0.00282092, global = 0.000159846, cumulative = 0.155368
ExecutionTime = 185.33 s  ClockTime = 212 s

Time = 58

smoothSolver:  Solving for Ux, Initial residual = 4.64332e-05, Final residual = 2.87131e-06, No Iterations 2
smoothSolver:  Solving for Uy, Initial residual = 0.000150323, Final residual = 6.76224e-06, No Iterations 4
smoothSolver:  Solving for Uz, Initial residual = 0.000139271, Final residual = 6.10827e-06, No Iterations 4
GAMG:  Solving for p, Initial residual = 4.61862e-07, Final residual = 2.29751e-08, No Iterations 5
time step continuity errors : sum local = 0.00479042, global = -6.51072e-05, cumulative = 0.155303
ExecutionTime = 185.74 s  ClockTime = 212 s

Time = 59

smoothSolver:  Solving for Ux, Initial residual = 3.98325e-05, Final residual = 2.64448e-06, No Iterations 2
smoothSolver:  Solving for Uy, Initial residual = 0.000137379, Final residual = 6.46971e-06, No Iterations 4
smoothSolver:  Solving for Uz, Initial residual = 0.000128421, Final residual = 5.78611e-06, No Iterations 4
GAMG:  Solving for p, Initial residual = 4.39812e-07, Final residual = 2.18933e-08, No Iterations 11
time step continuity errors : sum local = 0.00455658, global = 3.84716e-05, cumulative = 0.155341
ExecutionTime = 186.28 s  ClockTime = 213 s

Time = 60

smoothSolver:  Solving for Ux, Initial residual = 3.55182e-05, Final residual = 2.42578e-06, No Iterations 2
smoothSolver:  Solving for Uy, Initial residual = 0.000132063, Final residual = 6.18598e-06, No Iterations 4
smoothSolver:  Solving for Uz, Initial residual = 0.00012197, Final residual = 5.5029e-06, No Iterations 4
GAMG:  Solving for p, Initial residual = 4.19204e-07, Final residual = 2.08599e-08, No Iterations 42
time step continuity errors : sum local = 0.00433393, global = -0.00234965, cumulative = 0.152992
ExecutionTime = 187.44 s  ClockTime = 214 s

Time = 61

smoothSolver:  Solving for Ux, Initial residual = 3.34956e-05, Final residual = 2.20341e-06, No Iterations 2
smoothSolver:  Solving for Uy, Initial residual = 0.000132623, Final residual = 5.92855e-06, No Iterations 4
smoothSolver:  Solving for Uz, Initial residual = 0.000123621, Final residual = 5.24011e-06, No Iterations 4
GAMG:  Solving for p, Initial residual = 3.94139e-07, Final residual = 1.80008e-08, No Iterations 5
time step continuity errors : sum local = 0.00373396, global = -5.03574e-05, cumulative = 0.152941
ExecutionTime = 187.84 s  ClockTime = 214 s

Time = 62

smoothSolver:  Solving for Ux, Initial residual = 2.89197e-05, Final residual = 2.03463e-06, No Iterations 2
smoothSolver:  Solving for Uy, Initial residual = 0.000121016, Final residual = 5.67321e-06, No Iterations 4
smoothSolver:  Solving for Uz, Initial residual = 0.000111305, Final residual = 4.95869e-06, No Iterations 4
GAMG:  Solving for p, Initial residual = 3.73503e-07, Final residual = 1.80534e-08, No Iterations 5
time step continuity errors : sum local = 0.00373891, global = -5.87426e-05, cumulative = 0.152882
ExecutionTime = 188.25 s  ClockTime = 215 s

Time = 63

smoothSolver:  Solving for Ux, Initial residual = 2.5418e-05, Final residual = 1.87875e-06, No Iterations 2
smoothSolver:  Solving for Uy, Initial residual = 0.000113, Final residual = 5.43669e-06, No Iterations 4
smoothSolver:  Solving for Uz, Initial residual = 0.000101506, Final residual = 4.69779e-06, No Iterations 4
GAMG:  Solving for p, Initial residual = 3.54203e-07, Final residual = 1.75556e-08, No Iterations 15
time step continuity errors : sum local = 0.00363051, global = 2.03056e-05, cumulative = 0.152903
ExecutionTime = 188.87 s  ClockTime = 216 s

Time = 64

smoothSolver:  Solving for Ux, Initial residual = 2.35724e-05, Final residual = 1.7217e-06, No Iterations 2
smoothSolver:  Solving for Uy, Initial residual = 0.000107935, Final residual = 5.20775e-06, No Iterations 4
smoothSolver:  Solving for Uz, Initial residual = 0.000100599, Final residual = 4.48385e-06, No Iterations 4
GAMG:  Solving for p, Initial residual = 3.37627e-07, Final residual = 1.67809e-08, No Iterations 8
time step continuity errors : sum local = 0.00346547, global = 3.07408e-05, cumulative = 0.152933
ExecutionTime = 189.35 s  ClockTime = 216 s

Time = 65

smoothSolver:  Solving for Ux, Initial residual = 2.09702e-05, Final residual = 1.58909e-06, No Iterations 2
smoothSolver:  Solving for Uy, Initial residual = 0.000102801, Final residual = 4.98867e-06, No Iterations 4
smoothSolver:  Solving for Uz, Initial residual = 9.31117e-05, Final residual = 4.23821e-06, No Iterations 4
GAMG:  Solving for p, Initial residual = 3.21574e-07, Final residual = 1.5979e-08, No Iterations 45
time step continuity errors : sum local = 0.00329561, global = -0.00178363, cumulative = 0.15115
ExecutionTime = 190.57 s  ClockTime = 217 s

Time = 66

smoothSolver:  Solving for Ux, Initial residual = 2.05156e-05, Final residual = 1.44518e-06, No Iterations 2
smoothSolver:  Solving for Uy, Initial residual = 0.000105062, Final residual = 4.78534e-06, No Iterations 4
smoothSolver:  Solving for Uz, Initial residual = 9.37873e-05, Final residual = 4.01345e-06, No Iterations 4
GAMG:  Solving for p, Initial residual = 3.02042e-07, Final residual = 1.43866e-08, No Iterations 5
time step continuity errors : sum local = 0.00296366, global = -4.7674e-05, cumulative = 0.151102
ExecutionTime = 190.98 s  ClockTime = 218 s

Time = 67

smoothSolver:  Solving for Ux, Initial residual = 1.76781e-05, Final residual = 1.33881e-06, No Iterations 2
smoothSolver:  Solving for Uy, Initial residual = 9.59329e-05, Final residual = 4.57633e-06, No Iterations 4
smoothSolver:  Solving for Uz, Initial residual = 8.45273e-05, Final residual = 3.79739e-06, No Iterations 4
GAMG:  Solving for p, Initial residual = 2.86414e-07, Final residual = 1.41169e-08, No Iterations 5
time step continuity errors : sum local = 0.00290472, global = -5.26445e-05, cumulative = 0.15105
ExecutionTime = 191.4 s  ClockTime = 218 s

Time = 68

smoothSolver:  Solving for Ux, Initial residual = 1.553e-05, Final residual = 1.24176e-06, No Iterations 2
smoothSolver:  Solving for Uy, Initial residual = 8.86123e-05, Final residual = 4.37741e-06, No Iterations 4
smoothSolver:  Solving for Uz, Initial residual = 7.6087e-05, Final residual = 3.59796e-06, No Iterations 4
GAMG:  Solving for p, Initial residual = 2.71626e-07, Final residual = 1.34342e-08, No Iterations 15
time step continuity errors : sum local = 0.00276135, global = 3.47126e-05, cumulative = 0.151084
ExecutionTime = 192.01 s  ClockTime = 219 s

Time = 69

smoothSolver:  Solving for Ux, Initial residual = 1.45383e-05, Final residual = 1.14213e-06, No Iterations 2
smoothSolver:  Solving for Uy, Initial residual = 8.31876e-05, Final residual = 4.18461e-06, No Iterations 4
smoothSolver:  Solving for Uz, Initial residual = 7.45898e-05, Final residual = 3.43472e-06, No Iterations 4
GAMG:  Solving for p, Initial residual = 2.58361e-07, Final residual = 1.15361e-08, No Iterations 6
time step continuity errors : sum local = 0.00236865, global = 0.000152619, cumulative = 0.151237
ExecutionTime = 192.44 s  ClockTime = 219 s

Time = 70

smoothSolver:  Solving for Ux, Initial residual = 1.26557e-05, Final residual = 1.0629e-06, No Iterations 2
smoothSolver:  Solving for Uy, Initial residual = 8.04669e-05, Final residual = 4.00736e-06, No Iterations 4
smoothSolver:  Solving for Uz, Initial residual = 6.82157e-05, Final residual = 3.22556e-06, No Iterations 4
GAMG:  Solving for p, Initial residual = 2.44109e-07, Final residual = 6.75094e-09, No Iterations 43
time step continuity errors : sum local = 0.00138474, global = 7.64625e-05, cumulative = 0.151313
ExecutionTime = 193.64 s  ClockTime = 221 s

Time = 71

smoothSolver:  Solving for Ux, Initial residual = 1.26559e-05, Final residual = 9.72443e-07, No Iterations 2
smoothSolver:  Solving for Uy, Initial residual = 8.32086e-05, Final residual = 3.83964e-06, No Iterations 4
smoothSolver:  Solving for Uz, Initial residual = 7.10806e-05, Final residual = 3.06458e-06, No Iterations 4
GAMG:  Solving for p, Initial residual = 2.29427e-07, Final residual = 1.01136e-08, No Iterations 5
time step continuity errors : sum local = 0.00207249, global = -3.26229e-05, cumulative = 0.151281
ExecutionTime = 194.04 s  ClockTime = 221 s

Time = 72

smoothSolver:  Solving for Ux, Initial residual = 1.0778e-05, Final residual = 9.05273e-07, No Iterations 2
smoothSolver:  Solving for Uy, Initial residual = 7.72985e-05, Final residual = 3.66687e-06, No Iterations 4
smoothSolver:  Solving for Uz, Initial residual = 6.465e-05, Final residual = 2.8974e-06, No Iterations 4
GAMG:  Solving for p, Initial residual = 2.17195e-07, Final residual = 1.04898e-08, No Iterations 5
time step continuity errors : sum local = 0.00214767, global = -3.30057e-05, cumulative = 0.151248
ExecutionTime = 194.45 s  ClockTime = 221 s

Time = 73

smoothSolver:  Solving for Ux, Initial residual = 9.50614e-06, Final residual = 8.43373e-07, No Iterations 2
smoothSolver:  Solving for Uy, Initial residual = 6.98797e-05, Final residual = 3.49517e-06, No Iterations 4
smoothSolver:  Solving for Uz, Initial residual = 5.74093e-05, Final residual = 2.75343e-06, No Iterations 4
GAMG:  Solving for p, Initial residual = 2.06331e-07, Final residual = 9.86271e-09, No Iterations 7
time step continuity errors : sum local = 0.00201766, global = 2.35905e-05, cumulative = 0.151271
ExecutionTime = 194.94 s  ClockTime = 222 s

Time = 74

smoothSolver:  Solving for Ux, Initial residual = 8.60397e-06, Final residual = 7.84694e-07, No Iterations 2
smoothSolver:  Solving for Uy, Initial residual = 6.67121e-05, Final residual = 3.33456e-06, No Iterations 4
smoothSolver:  Solving for Uz, Initial residual = 5.70242e-05, Final residual = 2.62403e-06, No Iterations 4
GAMG:  Solving for p, Initial residual = 1.96518e-07, Final residual = 9.91671e-09, No Iterations 7
time step continuity errors : sum local = 0.00202715, global = 3.66592e-05, cumulative = 0.151308
ExecutionTime = 195.4 s  ClockTime = 222 s

Time = 75

smoothSolver:  Solving for Ux, Initial residual = 7.82491e-06, Final residual = 7.3053e-07, No Iterations 2
smoothSolver:  Solving for Uy, Initial residual = 6.37723e-05, Final residual = 3.18223e-06, No Iterations 4
smoothSolver:  Solving for Uz, Initial residual = 5.46785e-05, Final residual = 2.47972e-06, No Iterations 4
GAMG:  Solving for p, Initial residual = 1.87085e-07, Final residual = 8.58193e-09, No Iterations 6
time step continuity errors : sum local = 0.00175305, global = 9.26263e-05, cumulative = 0.151401
ExecutionTime = 195.84 s  ClockTime = 223 s

Time = 76

smoothSolver:  Solving for Ux, Initial residual = 6.94759e-06, Final residual = 6.83348e-07, No Iterations 2
smoothSolver:  Solving for Uy, Initial residual = 5.8398e-05, Final residual = 3.03631e-06, No Iterations 4
smoothSolver:  Solving for Uz, Initial residual = 4.80022e-05, Final residual = 2.32844e-06, No Iterations 4
GAMG:  Solving for p, Initial residual = 1.76586e-07, Final residual = 9.67533e-09, No Iterations 7
time step continuity errors : sum local = 0.00197512, global = 4.33928e-05, cumulative = 0.151444
ExecutionTime = 196.3 s  ClockTime = 223 s

Time = 77

smoothSolver:  Solving for Ux, Initial residual = 6.42881e-06, Final residual = 6.36689e-07, No Iterations 2
smoothSolver:  Solving for Uy, Initial residual = 5.54931e-05, Final residual = 2.89332e-06, No Iterations 4
smoothSolver:  Solving for Uz, Initial residual = 4.5424e-05, Final residual = 2.20752e-06, No Iterations 4
GAMG:  Solving for p, Initial residual = 1.67872e-07, Final residual = 9.92573e-09, No Iterations 4
time step continuity errors : sum local = 0.00202499, global = 0.000107668, cumulative = 0.151552
ExecutionTime = 196.71 s  ClockTime = 224 s

Time = 78

smoothSolver:  Solving for Ux, Initial residual = 5.75038e-06, Final residual = 1.12707e-07, No Iterations 4
smoothSolver:  Solving for Uy, Initial residual = 5.28544e-05, Final residual = 2.7589e-06, No Iterations 4
smoothSolver:  Solving for Uz, Initial residual = 4.31191e-05, Final residual = 2.09374e-06, No Iterations 4
GAMG:  Solving for p, Initial residual = 1.69295e-07, Final residual = 9.95706e-09, No Iterations 5
time step continuity errors : sum local = 0.00203026, global = -4.84798e-05, cumulative = 0.151503
ExecutionTime = 197.12 s  ClockTime = 224 s

Time = 79

smoothSolver:  Solving for Ux, Initial residual = 5.2277e-06, Final residual = 1.04249e-07, No Iterations 4
smoothSolver:  Solving for Uy, Initial residual = 5.00484e-05, Final residual = 2.65672e-06, No Iterations 4
smoothSolver:  Solving for Uz, Initial residual = 4.14612e-05, Final residual = 2.07255e-06, No Iterations 4
GAMG:  Solving for p, Initial residual = 1.63144e-07, Final residual = 9.57499e-09, No Iterations 7
time step continuity errors : sum local = 0.0019513, global = 4.98804e-05, cumulative = 0.151553
ExecutionTime = 197.59 s  ClockTime = 225 s

Time = 80

smoothSolver:  Solving for Ux, Initial residual = 4.87109e-06, Final residual = 9.65786e-08, No Iterations 4
smoothSolver:  Solving for Uy, Initial residual = 4.88482e-05, Final residual = 2.55359e-06, No Iterations 4
smoothSolver:  Solving for Uz, Initial residual = 4.1406e-05, Final residual = 2.03754e-06, No Iterations 4
GAMG:  Solving for p, Initial residual = 1.5253e-07, Final residual = 9.96314e-09, No Iterations 4
time step continuity errors : sum local = 0.00202937, global = 4.07795e-05, cumulative = 0.151594
ExecutionTime = 198 s  ClockTime = 225 s

Time = 81

smoothSolver:  Solving for Ux, Initial residual = 4.34619e-06, Final residual = 9.13103e-08, No Iterations 4
smoothSolver:  Solving for Uy, Initial residual = 4.61027e-05, Final residual = 2.43023e-06, No Iterations 4
smoothSolver:  Solving for Uz, Initial residual = 3.84958e-05, Final residual = 1.91414e-06, No Iterations 4
GAMG:  Solving for p, Initial residual = 1.4279e-07, Final residual = 9.94196e-09, No Iterations 5
time step continuity errors : sum local = 0.00202415, global = -7.74344e-05, cumulative = 0.151516
ExecutionTime = 198.45 s  ClockTime = 226 s

Time = 82

smoothSolver:  Solving for Ux, Initial residual = 4.02267e-06, Final residual = 8.70157e-08, No Iterations 4
smoothSolver:  Solving for Uy, Initial residual = 4.27218e-05, Final residual = 2.29458e-06, No Iterations 4
smoothSolver:  Solving for Uz, Initial residual = 3.54342e-05, Final residual = 1.77244e-06, No Iterations 4
GAMG:  Solving for p, Initial residual = 1.33704e-07, Final residual = 9.79987e-09, No Iterations 5
time step continuity errors : sum local = 0.00199439, global = -8.28356e-05, cumulative = 0.151434
ExecutionTime = 198.89 s  ClockTime = 226 s

Time = 83

smoothSolver:  Solving for Ux, Initial residual = 3.72538e-06, Final residual = 8.27988e-08, No Iterations 4
smoothSolver:  Solving for Uy, Initial residual = 4.04747e-05, Final residual = 2.17159e-06, No Iterations 4
smoothSolver:  Solving for Uz, Initial residual = 3.31968e-05, Final residual = 1.65122e-06, No Iterations 4
GAMG:  Solving for p, Initial residual = 1.26224e-07, Final residual = 9.6323e-09, No Iterations 5
time step continuity errors : sum local = 0.00195949, global = -8.28736e-05, cumulative = 0.151351
ExecutionTime = 199.34 s  ClockTime = 227 s

Time = 84

smoothSolver:  Solving for Ux, Initial residual = 3.43976e-06, Final residual = 7.81442e-08, No Iterations 4
smoothSolver:  Solving for Uy, Initial residual = 3.83846e-05, Final residual = 2.06628e-06, No Iterations 4
smoothSolver:  Solving for Uz, Initial residual = 3.14459e-05, Final residual = 1.56648e-06, No Iterations 4
GAMG:  Solving for p, Initial residual = 1.20419e-07, Final residual = 9.54532e-09, No Iterations 5
time step continuity errors : sum local = 0.00194096, global = -8.13633e-05, cumulative = 0.151269
ExecutionTime = 199.77 s  ClockTime = 227 s

Time = 85

smoothSolver:  Solving for Ux, Initial residual = 3.16724e-06, Final residual = 7.33663e-08, No Iterations 4
smoothSolver:  Solving for Uy, Initial residual = 3.63639e-05, Final residual = 1.97182e-06, No Iterations 4
smoothSolver:  Solving for Uz, Initial residual = 2.98886e-05, Final residual = 1.50263e-06, No Iterations 4
GAMG:  Solving for p, Initial residual = 1.13989e-07, Final residual = 9.39139e-09, No Iterations 5
time step continuity errors : sum local = 0.0019089, global = -7.83374e-05, cumulative = 0.151191
ExecutionTime = 200.21 s  ClockTime = 227 s

Time = 86

smoothSolver:  Solving for Ux, Initial residual = 2.91764e-06, Final residual = 6.89958e-08, No Iterations 4
smoothSolver:  Solving for Uy, Initial residual = 3.46209e-05, Final residual = 1.87907e-06, No Iterations 4
smoothSolver:  Solving for Uz, Initial residual = 2.86512e-05, Final residual = 1.43736e-06, No Iterations 4
GAMG:  Solving for p, Initial residual = 1.07651e-07, Final residual = 9.17424e-09, No Iterations 5
time step continuity errors : sum local = 0.00186407, global = -7.78007e-05, cumulative = 0.151113
ExecutionTime = 200.64 s  ClockTime = 228 s

Time = 87

smoothSolver:  Solving for Ux, Initial residual = 2.69425e-06, Final residual = 6.52295e-08, No Iterations 4
smoothSolver:  Solving for Uy, Initial residual = 3.30971e-05, Final residual = 1.78415e-06, No Iterations 4
smoothSolver:  Solving for Uz, Initial residual = 2.73889e-05, Final residual = 1.36068e-06, No Iterations 4
GAMG:  Solving for p, Initial residual = 1.01707e-07, Final residual = 8.87443e-09, No Iterations 5
time step continuity errors : sum local = 0.00180254, global = -7.97693e-05, cumulative = 0.151033
ExecutionTime = 201.07 s  ClockTime = 228 s

Time = 88

smoothSolver:  Solving for Ux, Initial residual = 2.4942e-06, Final residual = 6.18864e-08, No Iterations 4
smoothSolver:  Solving for Uy, Initial residual = 3.15749e-05, Final residual = 1.69045e-06, No Iterations 4
smoothSolver:  Solving for Uz, Initial residual = 2.59434e-05, Final residual = 1.27941e-06, No Iterations 4
GAMG:  Solving for p, Initial residual = 9.58418e-08, Final residual = 8.50952e-09, No Iterations 5
time step continuity errors : sum local = 0.00172788, global = -7.90042e-05, cumulative = 0.150954
ExecutionTime = 201.51 s  ClockTime = 229 s

Time = 89

smoothSolver:  Solving for Ux, Initial residual = 2.31062e-06, Final residual = 5.86925e-08, No Iterations 4
smoothSolver:  Solving for Uy, Initial residual = 3.00697e-05, Final residual = 1.60231e-06, No Iterations 4
smoothSolver:  Solving for Uz, Initial residual = 2.45336e-05, Final residual = 1.20493e-06, No Iterations 4
GAMG:  Solving for p, Initial residual = 9.04308e-08, Final residual = 8.24943e-09, No Iterations 5
time step continuity errors : sum local = 0.00167458, global = -7.69653e-05, cumulative = 0.150877
ExecutionTime = 201.93 s  ClockTime = 229 s

Time = 90

smoothSolver:  Solving for Ux, Initial residual = 2.13687e-06, Final residual = 5.55326e-08, No Iterations 4
smoothSolver:  Solving for Uy, Initial residual = 2.86819e-05, Final residual = 1.5208e-06, No Iterations 4
smoothSolver:  Solving for Uz, Initial residual = 2.33392e-05, Final residual = 1.14144e-06, No Iterations 4
GAMG:  Solving for p, Initial residual = 8.5431e-08, Final residual = 8.00356e-09, No Iterations 5
time step continuity errors : sum local = 0.00162424, global = -7.32069e-05, cumulative = 0.150804
ExecutionTime = 202.35 s  ClockTime = 230 s

Time = 91

smoothSolver:  Solving for Ux, Initial residual = 1.9726e-06, Final residual = 5.24806e-08, No Iterations 4
smoothSolver:  Solving for Uy, Initial residual = 2.74077e-05, Final residual = 1.44441e-06, No Iterations 4
smoothSolver:  Solving for Uz, Initial residual = 2.23129e-05, Final residual = 1.08527e-06, No Iterations 4
GAMG:  Solving for p, Initial residual = 8.06278e-08, Final residual = 7.68403e-09, No Iterations 5
time step continuity errors : sum local = 0.00155901, global = -6.92781e-05, cumulative = 0.150735
ExecutionTime = 202.79 s  ClockTime = 230 s

Time = 92

smoothSolver:  Solving for Ux, Initial residual = 1.82133e-06, Final residual = 4.96448e-08, No Iterations 4
smoothSolver:  Solving for Uy, Initial residual = 2.61741e-05, Final residual = 1.37099e-06, No Iterations 4
smoothSolver:  Solving for Uz, Initial residual = 2.12962e-05, Final residual = 1.03088e-06, No Iterations 4
GAMG:  Solving for p, Initial residual = 7.607e-08, Final residual = 7.34872e-09, No Iterations 5
time step continuity errors : sum local = 0.00149064, global = -6.72981e-05, cumulative = 0.150668
ExecutionTime = 203.22 s  ClockTime = 231 s

Time = 93

smoothSolver:  Solving for Ux, Initial residual = 1.68456e-06, Final residual = 4.70481e-08, No Iterations 4
smoothSolver:  Solving for Uy, Initial residual = 2.49443e-05, Final residual = 1.2997e-06, No Iterations 4
smoothSolver:  Solving for Uz, Initial residual = 2.02142e-05, Final residual = 9.7586e-07, No Iterations 4
GAMG:  Solving for p, Initial residual = 7.17419e-08, Final residual = 7.03216e-09, No Iterations 5
time step continuity errors : sum local = 0.00142613, global = -6.63554e-05, cumulative = 0.150601
ExecutionTime = 203.66 s  ClockTime = 231 s

Time = 94

smoothSolver:  Solving for Ux, Initial residual = 1.56047e-06, Final residual = 4.46387e-08, No Iterations 4
smoothSolver:  Solving for Uy, Initial residual = 2.37273e-05, Final residual = 1.23134e-06, No Iterations 4
smoothSolver:  Solving for Uz, Initial residual = 1.91072e-05, Final residual = 9.2178e-07, No Iterations 4
GAMG:  Solving for p, Initial residual = 6.76522e-08, Final residual = 6.7287e-09, No Iterations 5
time step continuity errors : sum local = 0.00136433, global = -6.48839e-05, cumulative = 0.150536
ExecutionTime = 204.09 s  ClockTime = 232 s

Time = 95

smoothSolver:  Solving for Ux, Initial residual = 1.44614e-06, Final residual = 4.23568e-08, No Iterations 4
smoothSolver:  Solving for Uy, Initial residual = 2.25465e-05, Final residual = 1.16673e-06, No Iterations 4
smoothSolver:  Solving for Uz, Initial residual = 1.80588e-05, Final residual = 8.71203e-07, No Iterations 4
GAMG:  Solving for p, Initial residual = 6.38308e-08, Final residual = 9.67479e-09, No Iterations 3
time step continuity errors : sum local = 0.00196134, global = 0.000139417, cumulative = 0.150676
ExecutionTime = 204.46 s  ClockTime = 232 s

Time = 96

smoothSolver:  Solving for Ux, Initial residual = 1.29716e-06, Final residual = 4.0165e-08, No Iterations 4
smoothSolver:  Solving for Uy, Initial residual = 2.16746e-05, Final residual = 1.10571e-06, No Iterations 4
smoothSolver:  Solving for Uz, Initial residual = 1.70929e-05, Final residual = 8.28261e-07, No Iterations 4
GAMG:  Solving for p, Initial residual = 5.99556e-08, Final residual = 9.79421e-09, No Iterations 3
time step continuity errors : sum local = 0.00198518, global = -0.000676262, cumulative = 0.15
ExecutionTime = 204.84 s  ClockTime = 232 s

Time = 97

smoothSolver:  Solving for Ux, Initial residual = 1.16743e-06, Final residual = 3.82387e-08, No Iterations 4
smoothSolver:  Solving for Uy, Initial residual = 2.09294e-05, Final residual = 1.04802e-06, No Iterations 4
smoothSolver:  Solving for Uz, Initial residual = 1.68108e-05, Final residual = 7.81283e-07, No Iterations 4
GAMG:  Solving for p, Initial residual = 5.6993e-08, Final residual = 9.83333e-09, No Iterations 3
time step continuity errors : sum local = 0.00199284, global = 0.000656375, cumulative = 0.150656
ExecutionTime = 205.2 s  ClockTime = 233 s

Time = 98

smoothSolver:  Solving for Ux, Initial residual = 1.07695e-06, Final residual = 3.63515e-08, No Iterations 4
smoothSolver:  Solving for Uy, Initial residual = 2.01426e-05, Final residual = 9.98194e-07, No Iterations 4
smoothSolver:  Solving for Uz, Initial residual = 1.62005e-05, Final residual = 7.39423e-07, No Iterations 4
GAMG:  Solving for p, Initial residual = 5.31817e-08, Final residual = 7.39544e-09, No Iterations 5
time step continuity errors : sum local = 0.00149854, global = -0.000649539, cumulative = 0.150006
ExecutionTime = 205.61 s  ClockTime = 233 s

Time = 99

smoothSolver:  Solving for Ux, Initial residual = 1.00876e-06, Final residual = 3.45562e-08, No Iterations 4
smoothSolver:  Solving for Uy, Initial residual = 1.97433e-05, Final residual = 9.43697e-07, No Iterations 4
smoothSolver:  Solving for Uz, Initial residual = 1.62441e-05, Final residual = 7.03143e-07, No Iterations 4
GAMG:  Solving for p, Initial residual = 5.07958e-08, Final residual = 7.82701e-09, No Iterations 2
time step continuity errors : sum local = 0.00158582, global = -0.000108039, cumulative = 0.149898
ExecutionTime = 205.94 s  ClockTime = 234 s

Time = 100

smoothSolver:  Solving for Ux, Initial residual = 8.71165e-07, Final residual = 3.28025e-08, No Iterations 4
smoothSolver:  Solving for Uy, Initial residual = 1.8083e-05, Final residual = 8.91948e-07, No Iterations 4
smoothSolver:  Solving for Uz, Initial residual = 1.4931e-05, Final residual = 6.64333e-07, No Iterations 4
GAMG:  Solving for p, Initial residual = 5.0528e-08, Final residual = 8.09011e-09, No Iterations 3
time step continuity errors : sum local = 0.00163891, global = 0.000565544, cumulative = 0.150464
ExecutionTime = 206.63 s  ClockTime = 235 s

Time = 101

smoothSolver:  Solving for Ux, Initial residual = 8.04239e-07, Final residual = 3.11044e-08, No Iterations 4
smoothSolver:  Solving for Uy, Initial residual = 1.68791e-05, Final residual = 8.4731e-07, No Iterations 4
smoothSolver:  Solving for Uz, Initial residual = 1.33536e-05, Final residual = 6.30117e-07, No Iterations 4
GAMG:  Solving for p, Initial residual = 4.57889e-08, Final residual = 7.60907e-09, No Iterations 3
time step continuity errors : sum local = 0.00154128, global = -0.000530016, cumulative = 0.149934
ExecutionTime = 207 s  ClockTime = 235 s

Time = 102

smoothSolver:  Solving for Ux, Initial residual = 7.57996e-07, Final residual = 2.9558e-08, No Iterations 4
smoothSolver:  Solving for Uy, Initial residual = 1.58142e-05, Final residual = 8.01317e-07, No Iterations 4
smoothSolver:  Solving for Uz, Initial residual = 1.23313e-05, Final residual = 5.979e-07, No Iterations 4
GAMG:  Solving for p, Initial residual = 4.18718e-08, Final residual = 6.26567e-09, No Iterations 2
time step continuity errors : sum local = 0.00126905, global = -1.51529e-05, cumulative = 0.149919
ExecutionTime = 207.35 s  ClockTime = 235 s

Time = 103

smoothSolver:  Solving for Ux, Initial residual = 7.01987e-07, Final residual = 2.81231e-08, No Iterations 4
smoothSolver:  Solving for Uy, Initial residual = 1.46661e-05, Final residual = 7.57684e-07, No Iterations 4
smoothSolver:  Solving for Uz, Initial residual = 1.15397e-05, Final residual = 5.63971e-07, No Iterations 4
GAMG:  Solving for p, Initial residual = 4.07691e-08, Final residual = 6.1087e-09, No Iterations 2
time step continuity errors : sum local = 0.00123713, global = -2.4907e-05, cumulative = 0.149894
ExecutionTime = 207.69 s  ClockTime = 236 s

Time = 104

smoothSolver:  Solving for Ux, Initial residual = 6.64288e-07, Final residual = 2.676e-08, No Iterations 4
smoothSolver:  Solving for Uy, Initial residual = 1.3734e-05, Final residual = 7.17575e-07, No Iterations 4
smoothSolver:  Solving for Uz, Initial residual = 1.09118e-05, Final residual = 5.3358e-07, No Iterations 4
GAMG:  Solving for p, Initial residual = 4.01831e-08, Final residual = 7.44019e-09, No Iterations 3
time step continuity errors : sum local = 0.00150665, global = 0.000527319, cumulative = 0.150421
ExecutionTime = 208.06 s  ClockTime = 236 s

Time = 105

smoothSolver:  Solving for Ux, Initial residual = 5.97092e-07, Final residual = 2.53407e-08, No Iterations 4
smoothSolver:  Solving for Uy, Initial residual = 1.29016e-05, Final residual = 6.82247e-07, No Iterations 4
smoothSolver:  Solving for Uz, Initial residual = 1.05732e-05, Final residual = 5.08965e-07, No Iterations 4
GAMG:  Solving for p, Initial residual = 3.72091e-08, Final residual = 6.72719e-09, No Iterations 3
time step continuity errors : sum local = 0.00136214, global = -0.000563509, cumulative = 0.149858
ExecutionTime = 208.44 s  ClockTime = 237 s

Time = 106

smoothSolver:  Solving for Ux, Initial residual = 5.7498e-07, Final residual = 2.41173e-08, No Iterations 4
smoothSolver:  Solving for Uy, Initial residual = 1.21584e-05, Final residual = 6.45318e-07, No Iterations 4
smoothSolver:  Solving for Uz, Initial residual = 9.87982e-06, Final residual = 4.81909e-07, No Iterations 4
GAMG:  Solving for p, Initial residual = 3.43632e-08, Final residual = 5.41181e-09, No Iterations 2
time step continuity errors : sum local = 0.00109574, global = -7.23943e-05, cumulative = 0.149785
ExecutionTime = 208.8 s  ClockTime = 237 s

Time = 107

smoothSolver:  Solving for Ux, Initial residual = 5.30737e-07, Final residual = 9.57196e-08, No Iterations 2
smoothSolver:  Solving for Uy, Initial residual = 1.14047e-05, Final residual = 6.10954e-07, No Iterations 4
smoothSolver:  Solving for Uz, Initial residual = 9.21436e-06, Final residual = 4.54866e-07, No Iterations 4
GAMG:  Solving for p, Initial residual = 3.27722e-08, Final residual = 6.55127e-09, No Iterations 3
time step continuity errors : sum local = 0.00132634, global = 0.000563938, cumulative = 0.150349
ExecutionTime = 209.17 s  ClockTime = 237 s

Time = 108

smoothSolver:  Solving for Ux, Initial residual = 5.00315e-07, Final residual = 9.26273e-08, No Iterations 2
smoothSolver:  Solving for Uy, Initial residual = 1.06585e-05, Final residual = 5.75364e-07, No Iterations 4
smoothSolver:  Solving for Uz, Initial residual = 8.50627e-06, Final residual = 4.14521e-07, No Iterations 4
GAMG:  Solving for p, Initial residual = 3.01447e-08, Final residual = 9.46204e-09, No Iterations 2
time step continuity errors : sum local = 0.0019155, global = 0.000954599, cumulative = 0.151304
ExecutionTime = 209.52 s  ClockTime = 238 s

Time = 109

smoothSolver:  Solving for Ux, Initial residual = 4.83188e-07, Final residual = 8.95667e-08, No Iterations 2
smoothSolver:  Solving for Uy, Initial residual = 1.00067e-05, Final residual = 5.43687e-07, No Iterations 4
smoothSolver:  Solving for Uz, Initial residual = 7.84849e-06, Final residual = 3.80514e-07, No Iterations 4
GAMG:  Solving for p, Initial residual = 2.97496e-08, Final residual = 8.58734e-09, No Iterations 2
time step continuity errors : sum local = 0.00173829, global = 0.000871804, cumulative = 0.152176
ExecutionTime = 209.88 s  ClockTime = 238 s

Time = 110

smoothSolver:  Solving for Ux, Initial residual = 4.53747e-07, Final residual = 8.57817e-08, No Iterations 2
smoothSolver:  Solving for Uy, Initial residual = 9.42677e-06, Final residual = 5.1387e-07, No Iterations 4
smoothSolver:  Solving for Uz, Initial residual = 7.46427e-06, Final residual = 3.58603e-07, No Iterations 4
GAMG:  Solving for p, Initial residual = 2.95052e-08, Final residual = 8.63005e-09, No Iterations 2
time step continuity errors : sum local = 0.00174685, global = 0.00084729, cumulative = 0.153023
ExecutionTime = 210.23 s  ClockTime = 239 s

Time = 111

smoothSolver:  Solving for Ux, Initial residual = 4.24854e-07, Final residual = 8.15958e-08, No Iterations 2
smoothSolver:  Solving for Uy, Initial residual = 8.97827e-06, Final residual = 4.87424e-07, No Iterations 4
smoothSolver:  Solving for Uz, Initial residual = 7.2322e-06, Final residual = 3.46158e-07, No Iterations 4
GAMG:  Solving for p, Initial residual = 2.82698e-08, Final residual = 8.42631e-09, No Iterations 2
time step continuity errors : sum local = 0.00170553, global = 0.000800605, cumulative = 0.153823
ExecutionTime = 210.61 s  ClockTime = 239 s

Time = 112

smoothSolver:  Solving for Ux, Initial residual = 3.98695e-07, Final residual = 7.7531e-08, No Iterations 2
smoothSolver:  Solving for Uy, Initial residual = 8.59703e-06, Final residual = 4.63662e-07, No Iterations 4
smoothSolver:  Solving for Uz, Initial residual = 7.01728e-06, Final residual = 3.35812e-07, No Iterations 4
GAMG:  Solving for p, Initial residual = 2.66913e-08, Final residual = 8.08484e-09, No Iterations 2
time step continuity errors : sum local = 0.00163634, global = 0.000767801, cumulative = 0.154591
ExecutionTime = 210.98 s  ClockTime = 239 s

Time = 113

smoothSolver:  Solving for Ux, Initial residual = 3.76265e-07, Final residual = 7.39254e-08, No Iterations 2
smoothSolver:  Solving for Uy, Initial residual = 8.22478e-06, Final residual = 4.4104e-07, No Iterations 4
smoothSolver:  Solving for Uz, Initial residual = 6.72431e-06, Final residual = 3.22179e-07, No Iterations 4
GAMG:  Solving for p, Initial residual = 2.5339e-08, Final residual = 7.74238e-09, No Iterations 2
time step continuity errors : sum local = 0.00156697, global = 0.000752106, cumulative = 0.155343
ExecutionTime = 211.34 s  ClockTime = 240 s

Time = 114

smoothSolver:  Solving for Ux, Initial residual = 3.57421e-07, Final residual = 7.08029e-08, No Iterations 2
smoothSolver:  Solving for Uy, Initial residual = 7.8331e-06, Final residual = 4.19046e-07, No Iterations 4
smoothSolver:  Solving for Uz, Initial residual = 6.3471e-06, Final residual = 3.04789e-07, No Iterations 4
GAMG:  Solving for p, Initial residual = 2.41385e-08, Final residual = 9.67391e-09, No Iterations 1
time step continuity errors : sum local = 0.00195781, global = -0.000548257, cumulative = 0.154795
ExecutionTime = 211.68 s  ClockTime = 240 s

Time = 115

smoothSolver:  Solving for Ux, Initial residual = 3.34365e-07, Final residual = 6.79414e-08, No Iterations 2
smoothSolver:  Solving for Uy, Initial residual = 7.39009e-06, Final residual = 3.95977e-07, No Iterations 4
smoothSolver:  Solving for Uz, Initial residual = 5.93894e-06, Final residual = 2.87422e-07, No Iterations 4
GAMG:  Solving for p, Initial residual = 2.40164e-08, Final residual = 4.58835e-09, No Iterations 2
time step continuity errors : sum local = 0.000928591, global = -1.71169e-06, cumulative = 0.154793
ExecutionTime = 212.03 s  ClockTime = 241 s

Time = 116

smoothSolver:  Solving for Ux, Initial residual = 3.5274e-07, Final residual = 6.53324e-08, No Iterations 2
smoothSolver:  Solving for Uy, Initial residual = 6.92116e-06, Final residual = 3.75792e-07, No Iterations 4
smoothSolver:  Solving for Uz, Initial residual = 5.57682e-06, Final residual = 2.68683e-07, No Iterations 4
GAMG:  Solving for p, Initial residual = 2.22091e-08, Final residual = 7.00515e-09, No Iterations 2
time step continuity errors : sum local = 0.00141764, global = -0.000677106, cumulative = 0.154116
ExecutionTime = 212.39 s  ClockTime = 241 s

Time = 117

smoothSolver:  Solving for Ux, Initial residual = 3.12418e-07, Final residual = 6.20927e-08, No Iterations 2
smoothSolver:  Solving for Uy, Initial residual = 6.59182e-06, Final residual = 3.56769e-07, No Iterations 4
smoothSolver:  Solving for Uz, Initial residual = 5.32618e-06, Final residual = 2.56123e-07, No Iterations 4
GAMG:  Solving for p, Initial residual = 2.0927e-08, Final residual = 9.35689e-09, No Iterations 1
time step continuity errors : sum local = 0.00189354, global = 0.000592046, cumulative = 0.154708
ExecutionTime = 212.81 s  ClockTime = 242 s

Time = 118

smoothSolver:  Solving for Ux, Initial residual = 2.84401e-07, Final residual = 5.9309e-08, No Iterations 2
smoothSolver:  Solving for Uy, Initial residual = 6.25916e-06, Final residual = 3.41395e-07, No Iterations 4
smoothSolver:  Solving for Uz, Initial residual = 5.03673e-06, Final residual = 2.44273e-07, No Iterations 4
GAMG:  Solving for p, Initial residual = 1.99126e-08, Final residual = 4.47292e-09, No Iterations 2
time step continuity errors : sum local = 0.000905125, global = -2.17645e-05, cumulative = 0.154687
ExecutionTime = 213.15 s  ClockTime = 242 s

Time = 119

smoothSolver:  Solving for Ux, Initial residual = 3.06441e-07, Final residual = 5.71063e-08, No Iterations 2
smoothSolver:  Solving for Uy, Initial residual = 6.10986e-06, Final residual = 3.25292e-07, No Iterations 4
smoothSolver:  Solving for Uz, Initial residual = 4.98821e-06, Final residual = 2.34816e-07, No Iterations 4
GAMG:  Solving for p, Initial residual = 1.82325e-08, Final residual = 9.6289e-09, No Iterations 1
time step continuity errors : sum local = 0.00194845, global = -0.000719125, cumulative = 0.153967
ExecutionTime = 213.48 s  ClockTime = 243 s

Time = 120

smoothSolver:  Solving for Ux, Initial residual = 2.70778e-07, Final residual = 5.41857e-08, No Iterations 2
smoothSolver:  Solving for Uy, Initial residual = 6.18007e-06, Final residual = 3.08713e-07, No Iterations 4
smoothSolver:  Solving for Uz, Initial residual = 5.09935e-06, Final residual = 2.26233e-07, No Iterations 4
GAMG:  Solving for p, Initial residual = 1.79433e-08, Final residual = 9.46998e-09, No Iterations 1
time step continuity errors : sum local = 0.00191628, global = 0.000705217, cumulative = 0.154673
ExecutionTime = 213.82 s  ClockTime = 243 s

Time = 121

smoothSolver:  Solving for Ux, Initial residual = 2.59412e-07, Final residual = 5.19933e-08, No Iterations 2
smoothSolver:  Solving for Uy, Initial residual = 5.57656e-06, Final residual = 2.94335e-07, No Iterations 4
smoothSolver:  Solving for Uz, Initial residual = 4.68984e-06, Final residual = 2.13581e-07, No Iterations 4
GAMG:  Solving for p, Initial residual = 1.72447e-08, Final residual = 6.38288e-09, No Iterations 2
time step continuity errors : sum local = 0.00129151, global = 0.000574671, cumulative = 0.155247
ExecutionTime = 214.15 s  ClockTime = 243 s

Time = 122

smoothSolver:  Solving for Ux, Initial residual = 2.61339e-07, Final residual = 5.01242e-08, No Iterations 2
smoothSolver:  Solving for Uy, Initial residual = 5.24756e-06, Final residual = 2.80957e-07, No Iterations 4
smoothSolver:  Solving for Uz, Initial residual = 4.3368e-06, Final residual = 2.02368e-07, No Iterations 4
GAMG:  Solving for p, Initial residual = 1.7174e-08, Final residual = 7.96302e-09, No Iterations 1
time step continuity errors : sum local = 0.00161121, global = -0.000541184, cumulative = 0.154706
ExecutionTime = 214.5 s  ClockTime = 244 s

Time = 123

smoothSolver:  Solving for Ux, Initial residual = 2.37922e-07, Final residual = 4.80081e-08, No Iterations 2
smoothSolver:  Solving for Uy, Initial residual = 4.96545e-06, Final residual = 2.64452e-07, No Iterations 4
smoothSolver:  Solving for Uz, Initial residual = 4.09492e-06, Final residual = 1.92763e-07, No Iterations 4
GAMG:  Solving for p, Initial residual = 1.66661e-08, Final residual = 9.73581e-09, No Iterations 1
time step continuity errors : sum local = 0.00196992, global = -6.24192e-05, cumulative = 0.154644
ExecutionTime = 214.83 s  ClockTime = 244 s

Time = 124

smoothSolver:  Solving for Ux, Initial residual = 2.30093e-07, Final residual = 4.61637e-08, No Iterations 2
smoothSolver:  Solving for Uy, Initial residual = 4.84927e-06, Final residual = 2.54416e-07, No Iterations 4
smoothSolver:  Solving for Uz, Initial residual = 3.86642e-06, Final residual = 1.80999e-07, No Iterations 4
GAMG:  Solving for p, Initial residual = 1.36961e-08, Final residual = 6.06082e-09, No Iterations 1
time step continuity errors : sum local = 0.0012263, global = -3.17797e-05, cumulative = 0.154612
ExecutionTime = 215.18 s  ClockTime = 244 s

Time = 125

smoothSolver:  Solving for Ux, Initial residual = 2.33313e-07, Final residual = 4.43806e-08, No Iterations 2
smoothSolver:  Solving for Uy, Initial residual = 4.38203e-06, Final residual = 2.39952e-07, No Iterations 4
smoothSolver:  Solving for Uz, Initial residual = 3.71323e-06, Final residual = 1.74885e-07, No Iterations 4
GAMG:  Solving for p, Initial residual = 1.53107e-08, Final residual = 8.98068e-09, No Iterations 1
time step continuity errors : sum local = 0.00181705, global = 0.000735278, cumulative = 0.155347
ExecutionTime = 215.49 s  ClockTime = 245 s

Time = 126

smoothSolver:  Solving for Ux, Initial residual = 2.05019e-07, Final residual = 4.20703e-08, No Iterations 2
smoothSolver:  Solving for Uy, Initial residual = 4.32213e-06, Final residual = 2.33268e-07, No Iterations 4
smoothSolver:  Solving for Uz, Initial residual = 3.46512e-06, Final residual = 1.67615e-07, No Iterations 4
GAMG:  Solving for p, Initial residual = 1.51994e-08, Final residual = 8.43649e-09, No Iterations 1
time step continuity errors : sum local = 0.00170687, global = -0.00064821, cumulative = 0.154699
ExecutionTime = 215.83 s  ClockTime = 245 s

Time = 127

smoothSolver:  Solving for Ux, Initial residual = 1.89865e-07, Final residual = 4.02512e-08, No Iterations 2
smoothSolver:  Solving for Uy, Initial residual = 3.9908e-06, Final residual = 2.18969e-07, No Iterations 4
smoothSolver:  Solving for Uz, Initial residual = 3.28392e-06, Final residual = 1.59825e-07, No Iterations 4
GAMG:  Solving for p, Initial residual = 1.44416e-08, Final residual = 4.62282e-09, No Iterations 2
time step continuity errors : sum local = 0.000935312, global = 2.50555e-05, cumulative = 0.154724
ExecutionTime = 216.19 s  ClockTime = 245 s

Time = 128

smoothSolver:  Solving for Ux, Initial residual = 2.21652e-07, Final residual = 3.9297e-08, No Iterations 2
smoothSolver:  Solving for Uy, Initial residual = 3.91252e-06, Final residual = 2.10145e-07, No Iterations 4
smoothSolver:  Solving for Uz, Initial residual = 3.21194e-06, Final residual = 1.52293e-07, No Iterations 4
GAMG:  Solving for p, Initial residual = 1.22266e-08, Final residual = 7.80941e-09, No Iterations 1
time step continuity errors : sum local = 0.00157998, global = 0.000631537, cumulative = 0.155356
ExecutionTime = 216.52 s  ClockTime = 246 s

Time = 129

smoothSolver:  Solving for Ux, Initial residual = 2.09477e-07, Final residual = 3.7635e-08, No Iterations 2
smoothSolver:  Solving for Uy, Initial residual = 4.23295e-06, Final residual = 2.03439e-07, No Iterations 4
smoothSolver:  Solving for Uz, Initial residual = 3.48432e-06, Final residual = 1.46388e-07, No Iterations 4
GAMG:  Solving for p, Initial residual = 1.16653e-08, Final residual = 7.95164e-09, No Iterations 1
time step continuity errors : sum local = 0.00160871, global = -0.000718296, cumulative = 0.154637
ExecutionTime = 216.86 s  ClockTime = 246 s

Time = 130

smoothSolver:  Solving for Ux, Initial residual = 1.94659e-07, Final residual = 3.61718e-08, No Iterations 2
smoothSolver:  Solving for Uy, Initial residual = 3.63816e-06, Final residual = 1.90716e-07, No Iterations 4
smoothSolver:  Solving for Uz, Initial residual = 3.03146e-06, Final residual = 1.38965e-07, No Iterations 4
[...]
ExecutionTime = 291.14 s  ClockTime = 329 s

Time = 376

smoothSolver:  Solving for Ux, Initial residual = 6.54216e-09, Final residual = 6.54216e-09, No Iterations 0
smoothSolver:  Solving for Uy, Initial residual = 1.45467e-07, Final residual = 2.57947e-08, No Iterations 2
smoothSolver:  Solving for Uz, Initial residual = 3.39231e-07, Final residual = 7.19705e-08, No Iterations 2
GAMG:  Solving for p, Initial residual = 3.21962e-09, Final residual = 3.21962e-09, No Iterations 0
time step continuity errors : sum local = 0.000651272, global = -2.55603e-05, cumulative = 0.155896
ExecutionTime = 291.41 s  ClockTime = 329 s

Time = 377

smoothSolver:  Solving for Ux, Initial residual = 5.82543e-09, Final residual = 5.82543e-09, No Iterations 0
smoothSolver:  Solving for Uy, Initial residual = 1.26192e-07, Final residual = 2.31124e-08, No Iterations 2
smoothSolver:  Solving for Uz, Initial residual = 3.04027e-07, Final residual = 6.5403e-08, No Iterations 2
GAMG:  Solving for p, Initial residual = 6.0239e-09, Final residual = 6.0239e-09, No Iterations 0
time step continuity errors : sum local = 0.00121853, global = -6.45473e-05, cumulative = 0.155832
ExecutionTime = 291.68 s  ClockTime = 329 s

Time = 378

smoothSolver:  Solving for Ux, Initial residual = 5.32516e-09, Final residual = 5.32516e-09, No Iterations 0
smoothSolver:  Solving for Uy, Initial residual = 1.14389e-07, Final residual = 2.15285e-08, No Iterations 2
smoothSolver:  Solving for Uz, Initial residual = 2.74772e-07, Final residual = 5.98426e-08, No Iterations 2
GAMG:  Solving for p, Initial residual = 8.71507e-09, Final residual = 8.71507e-09, No Iterations 0
time step continuity errors : sum local = 0.00176291, global = -9.32558e-05, cumulative = 0.155739
ExecutionTime = 291.96 s  ClockTime = 330 s

Time = 379

smoothSolver:  Solving for Ux, Initial residual = 4.96261e-09, Final residual = 4.96261e-09, No Iterations 0
smoothSolver:  Solving for Uy, Initial residual = 1.05974e-07, Final residual = 2.0516e-08, No Iterations 2
smoothSolver:  Solving for Uz, Initial residual = 2.50025e-07, Final residual = 5.50543e-08, No Iterations 2
GAMG:  Solving for p, Initial residual = 1.11298e-08, Final residual = 4.3639e-09, No Iterations 1
time step continuity errors : sum local = 0.000882745, global = 9.05554e-05, cumulative = 0.155829
ExecutionTime = 292.25 s  ClockTime = 330 s

Time = 380

smoothSolver:  Solving for Ux, Initial residual = 7.34364e-09, Final residual = 7.34364e-09, No Iterations 0
smoothSolver:  Solving for Uy, Initial residual = 1.67775e-07, Final residual = 2.8892e-08, No Iterations 2
smoothSolver:  Solving for Uz, Initial residual = 3.72283e-07, Final residual = 7.74943e-08, No Iterations 2
GAMG:  Solving for p, Initial residual = 4.21137e-09, Final residual = 4.21137e-09, No Iterations 0
time step continuity errors : sum local = 0.000851885, global = 1.38029e-05, cumulative = 0.155843
ExecutionTime = 292.51 s  ClockTime = 330 s

Time = 381

smoothSolver:  Solving for Ux, Initial residual = 6.27584e-09, Final residual = 6.27584e-09, No Iterations 0
smoothSolver:  Solving for Uy, Initial residual = 1.43044e-07, Final residual = 2.56552e-08, No Iterations 2
smoothSolver:  Solving for Uz, Initial residual = 3.35919e-07, Final residual = 7.13397e-08, No Iterations 2
GAMG:  Solving for p, Initial residual = 3.24611e-09, Final residual = 3.24611e-09, No Iterations 0
time step continuity errors : sum local = 0.000656632, global = 6.43713e-05, cumulative = 0.155907
ExecutionTime = 292.76 s  ClockTime = 331 s

Time = 382

smoothSolver:  Solving for Ux, Initial residual = 5.58649e-09, Final residual = 5.58649e-09, No Iterations 0
smoothSolver:  Solving for Uy, Initial residual = 1.2455e-07, Final residual = 2.30684e-08, No Iterations 2
smoothSolver:  Solving for Uz, Initial residual = 3.01263e-07, Final residual = 6.48723e-08, No Iterations 2
GAMG:  Solving for p, Initial residual = 6.05602e-09, Final residual = 6.05602e-09, No Iterations 0
time step continuity errors : sum local = 0.00122503, global = 0.000101364, cumulative = 0.156009
ExecutionTime = 293.05 s  ClockTime = 331 s

Time = 383

smoothSolver:  Solving for Ux, Initial residual = 5.10683e-09, Final residual = 5.10683e-09, No Iterations 0
smoothSolver:  Solving for Uy, Initial residual = 1.13177e-07, Final residual = 2.1524e-08, No Iterations 2
smoothSolver:  Solving for Uz, Initial residual = 2.72425e-07, Final residual = 5.93905e-08, No Iterations 2
GAMG:  Solving for p, Initial residual = 8.75056e-09, Final residual = 8.75056e-09, No Iterations 0
time step continuity errors : sum local = 0.00177008, global = 0.000128315, cumulative = 0.156137
ExecutionTime = 293.31 s  ClockTime = 331 s

Time = 384

smoothSolver:  Solving for Ux, Initial residual = 4.75958e-09, Final residual = 4.75958e-09, No Iterations 0
smoothSolver:  Solving for Uy, Initial residual = 1.04952e-07, Final residual = 2.05243e-08, No Iterations 2
smoothSolver:  Solving for Uz, Initial residual = 2.47978e-07, Final residual = 5.46559e-08, No Iterations 2
GAMG:  Solving for p, Initial residual = 1.11666e-08, Final residual = 4.28603e-09, No Iterations 1
time step continuity errors : sum local = 0.000866985, global = -4.80974e-05, cumulative = 0.156089
ExecutionTime = 293.6 s  ClockTime = 332 s

Time = 385

smoothSolver:  Solving for Ux, Initial residual = 7.30033e-09, Final residual = 7.30033e-09, No Iterations 0
smoothSolver:  Solving for Uy, Initial residual = 1.65083e-07, Final residual = 2.8159e-08, No Iterations 2
smoothSolver:  Solving for Uz, Initial residual = 3.71605e-07, Final residual = 7.73011e-08, No Iterations 2
GAMG:  Solving for p, Initial residual = 4.20498e-09, Final residual = 4.20498e-09, No Iterations 0
time step continuity errors : sum local = 0.000850595, global = 2.52308e-05, cumulative = 0.156114
ExecutionTime = 293.88 s  ClockTime = 332 s

Time = 386

smoothSolver:  Solving for Ux, Initial residual = 6.2039e-09, Final residual = 6.2039e-09, No Iterations 0
smoothSolver:  Solving for Uy, Initial residual = 1.40402e-07, Final residual = 2.49195e-08, No Iterations 2
smoothSolver:  Solving for Uz, Initial residual = 3.35212e-07, Final residual = 7.11332e-08, No Iterations 2
GAMG:  Solving for p, Initial residual = 3.14454e-09, Final residual = 3.14454e-09, No Iterations 0
time step continuity errors : sum local = 0.000636084, global = -2.31775e-05, cumulative = 0.156091
ExecutionTime = 294.15 s  ClockTime = 332 s

Time = 387

smoothSolver:  Solving for Ux, Initial residual = 5.50114e-09, Final residual = 5.50114e-09, No Iterations 0
smoothSolver:  Solving for Uy, Initial residual = 1.21845e-07, Final residual = 2.23259e-08, No Iterations 2
smoothSolver:  Solving for Uz, Initial residual = 3.00518e-07, Final residual = 6.46481e-08, No Iterations 2
GAMG:  Solving for p, Initial residual = 5.91513e-09, Final residual = 5.91513e-09, No Iterations 0
time step continuity errors : sum local = 0.00119653, global = -5.86916e-05, cumulative = 0.156032
ExecutionTime = 294.44 s  ClockTime = 333 s

Time = 388

smoothSolver:  Solving for Ux, Initial residual = 5.01162e-09, Final residual = 5.01162e-09, No Iterations 0
smoothSolver:  Solving for Uy, Initial residual = 1.10524e-07, Final residual = 2.08098e-08, No Iterations 2
smoothSolver:  Solving for Uz, Initial residual = 2.71653e-07, Final residual = 5.91531e-08, No Iterations 2
GAMG:  Solving for p, Initial residual = 8.57642e-09, Final residual = 8.57642e-09, No Iterations 0
time step continuity errors : sum local = 0.00173486, global = -8.47129e-05, cumulative = 0.155948
ExecutionTime = 294.72 s  ClockTime = 333 s

Time = 389

smoothSolver:  Solving for Ux, Initial residual = 4.65763e-09, Final residual = 4.65763e-09, No Iterations 0
smoothSolver:  Solving for Uy, Initial residual = 1.02477e-07, Final residual = 1.98468e-08, No Iterations 2
smoothSolver:  Solving for Uz, Initial residual = 2.47198e-07, Final residual = 5.44216e-08, No Iterations 2
GAMG:  Solving for p, Initial residual = 1.09646e-08, Final residual = 4.27965e-09, No Iterations 1
time step continuity errors : sum local = 0.0008657, global = 8.57456e-05, cumulative = 0.156033
ExecutionTime = 295.01 s  ClockTime = 333 s

Time = 390

smoothSolver:  Solving for Ux, Initial residual = 7.02783e-09, Final residual = 7.02783e-09, No Iterations 0
smoothSolver:  Solving for Uy, Initial residual = 1.62626e-07, Final residual = 2.80257e-08, No Iterations 2
smoothSolver:  Solving for Uz, Initial residual = 3.66696e-07, Final residual = 7.63647e-08, No Iterations 2
GAMG:  Solving for p, Initial residual = 4.14642e-09, Final residual = 4.14642e-09, No Iterations 0
time step continuity errors : sum local = 0.000838746, global = 1.51467e-05, cumulative = 0.156049
ExecutionTime = 295.3 s  ClockTime = 334 s

Time = 391

smoothSolver:  Solving for Ux, Initial residual = 5.9757e-09, Final residual = 5.9757e-09, No Iterations 0
smoothSolver:  Solving for Uy, Initial residual = 1.38845e-07, Final residual = 2.49104e-08, No Iterations 2
smoothSolver:  Solving for Uz, Initial residual = 3.31032e-07, Final residual = 7.03214e-08, No Iterations 2
GAMG:  Solving for p, Initial residual = 3.16334e-09, Final residual = 3.16334e-09, No Iterations 0
time step continuity errors : sum local = 0.000639888, global = 6.22666e-05, cumulative = 0.156111
ExecutionTime = 295.56 s  ClockTime = 334 s

Time = 392

smoothSolver:  Solving for Ux, Initial residual = 5.29804e-09, Final residual = 5.29804e-09, No Iterations 0
smoothSolver:  Solving for Uy, Initial residual = 1.21099e-07, Final residual = 2.24528e-08, No Iterations 2
smoothSolver:  Solving for Uz, Initial residual = 2.96884e-07, Final residual = 6.39369e-08, No Iterations 2
GAMG:  Solving for p, Initial residual = 5.92653e-09, Final residual = 5.92653e-09, No Iterations 0
time step continuity errors : sum local = 0.00119883, global = 9.6861e-05, cumulative = 0.156208
ExecutionTime = 295.85 s  ClockTime = 334 s

Time = 393

smoothSolver:  Solving for Ux, Initial residual = 4.82683e-09, Final residual = 4.82683e-09, No Iterations 0
smoothSolver:  Solving for Uy, Initial residual = 1.10314e-07, Final residual = 2.1012e-08, No Iterations 2
smoothSolver:  Solving for Uz, Initial residual = 2.68451e-07, Final residual = 5.85217e-08, No Iterations 2
GAMG:  Solving for p, Initial residual = 8.57893e-09, Final residual = 8.57893e-09, No Iterations 0
time step continuity errors : sum local = 0.00173536, global = 0.000122201, cumulative = 0.15633
ExecutionTime = 296.14 s  ClockTime = 335 s

Time = 394

smoothSolver:  Solving for Ux, Initial residual = 4.48621e-09, Final residual = 4.48621e-09, No Iterations 0
smoothSolver:  Solving for Uy, Initial residual = 1.02587e-07, Final residual = 2.00954e-08, No Iterations 2
smoothSolver:  Solving for Uz, Initial residual = 2.4433e-07, Final residual = 5.38437e-08, No Iterations 2
GAMG:  Solving for p, Initial residual = 1.09588e-08, Final residual = 4.21062e-09, No Iterations 1
time step continuity errors : sum local = 0.000851731, global = -4.25874e-05, cumulative = 0.156287
ExecutionTime = 296.45 s  ClockTime = 335 s

Time = 395

smoothSolver:  Solving for Ux, Initial residual = 7.00041e-09, Final residual = 7.00041e-09, No Iterations 0
smoothSolver:  Solving for Uy, Initial residual = 1.59993e-07, Final residual = 2.73881e-08, No Iterations 2
smoothSolver:  Solving for Uz, Initial residual = 3.65512e-07, Final residual = 7.60623e-08, No Iterations 2
GAMG:  Solving for p, Initial residual = 4.13017e-09, Final residual = 4.13017e-09, No Iterations 0
time step continuity errors : sum local = 0.000835462, global = 2.58982e-05, cumulative = 0.156313
ExecutionTime = 296.73 s  ClockTime = 335 s

Time = 396

smoothSolver:  Solving for Ux, Initial residual = 5.9222e-09, Final residual = 5.9222e-09, No Iterations 0
smoothSolver:  Solving for Uy, Initial residual = 1.36344e-07, Final residual = 2.42882e-08, No Iterations 2
smoothSolver:  Solving for Uz, Initial residual = 3.29779e-07, Final residual = 7.00021e-08, No Iterations 2
GAMG:  Solving for p, Initial residual = 3.08421e-09, Final residual = 3.08421e-09, No Iterations 0
time step continuity errors : sum local = 0.000623881, global = -1.95705e-05, cumulative = 0.156294
ExecutionTime = 297.01 s  ClockTime = 336 s

Time = 397

smoothSolver:  Solving for Ux, Initial residual = 5.23171e-09, Final residual = 5.23171e-09, No Iterations 0
smoothSolver:  Solving for Uy, Initial residual = 1.18632e-07, Final residual = 2.18174e-08, No Iterations 2
smoothSolver:  Solving for Uz, Initial residual = 2.95604e-07, Final residual = 6.36082e-08, No Iterations 2
GAMG:  Solving for p, Initial residual = 5.81408e-09, Final residual = 5.81408e-09, No Iterations 0
time step continuity errors : sum local = 0.00117609, global = -5.29995e-05, cumulative = 0.156241
ExecutionTime = 297.29 s  ClockTime = 336 s

Time = 398

smoothSolver:  Solving for Ux, Initial residual = 4.75172e-09, Final residual = 4.75172e-09, No Iterations 0
smoothSolver:  Solving for Uy, Initial residual = 1.07957e-07, Final residual = 2.03832e-08, No Iterations 2
smoothSolver:  Solving for Uz, Initial residual = 2.67161e-07, Final residual = 5.81859e-08, No Iterations 2
GAMG:  Solving for p, Initial residual = 8.43679e-09, Final residual = 8.43679e-09, No Iterations 0
time step continuity errors : sum local = 0.00170662, global = -7.75441e-05, cumulative = 0.156163
ExecutionTime = 297.59 s  ClockTime = 336 s

Time = 399

smoothSolver:  Solving for Ux, Initial residual = 4.40533e-09, Final residual = 4.40533e-09, No Iterations 0
smoothSolver:  Solving for Uy, Initial residual = 1.00329e-07, Final residual = 1.94741e-08, No Iterations 2
smoothSolver:  Solving for Uz, Initial residual = 2.43056e-07, Final residual = 5.35143e-08, No Iterations 2
GAMG:  Solving for p, Initial residual = 1.07911e-08, Final residual = 4.57835e-09, No Iterations 1
time step continuity errors : sum local = 0.000926123, global = 3.57546e-06, cumulative = 0.156167
ExecutionTime = 297.92 s  ClockTime = 337 s

Time = 400

smoothSolver:  Solving for Ux, Initial residual = 5.56436e-08, Final residual = 5.56436e-08, No Iterations 0
smoothSolver:  Solving for Uy, Initial residual = 2.56247e-07, Final residual = 2.00353e-08, No Iterations 2
smoothSolver:  Solving for Uz, Initial residual = 3.75712e-07, Final residual = 5.14675e-08, No Iterations 2
GAMG:  Solving for p, Initial residual = 6.40006e-09, Final residual = 6.40006e-09, No Iterations 0
time step continuity errors : sum local = 0.00129462, global = -4.15444e-05, cumulative = 0.156125
ExecutionTime = 298.57 s  ClockTime = 337 s

Time = 401

smoothSolver:  Solving for Ux, Initial residual = 3.91733e-08, Final residual = 3.91733e-08, No Iterations 0
smoothSolver:  Solving for Uy, Initial residual = 1.97645e-07, Final residual = 1.76064e-08, No Iterations 2
smoothSolver:  Solving for Uz, Initial residual = 3.06566e-07, Final residual = 4.5594e-08, No Iterations 2
GAMG:  Solving for p, Initial residual = 4.64835e-09, Final residual = 4.64835e-09, No Iterations 0
time step continuity errors : sum local = 0.000940282, global = -2.39689e-05, cumulative = 0.156101
ExecutionTime = 298.88 s  ClockTime = 338 s

Time = 402

smoothSolver:  Solving for Ux, Initial residual = 2.83133e-08, Final residual = 2.83133e-08, No Iterations 0
smoothSolver:  Solving for Uy, Initial residual = 1.5386e-07, Final residual = 1.52916e-08, No Iterations 2
smoothSolver:  Solving for Uz, Initial residual = 2.52614e-07, Final residual = 4.01596e-08, No Iterations 2
GAMG:  Solving for p, Initial residual = 3.63055e-09, Final residual = 3.63055e-09, No Iterations 0
time step continuity errors : sum local = 0.000734397, global = -1.19414e-05, cumulative = 0.156089
ExecutionTime = 299.16 s  ClockTime = 338 s

Time = 403

smoothSolver:  Solving for Ux, Initial residual = 2.10955e-08, Final residual = 2.10955e-08, No Iterations 0
smoothSolver:  Solving for Uy, Initial residual = 1.22815e-07, Final residual = 1.34716e-08, No Iterations 2
smoothSolver:  Solving for Uz, Initial residual = 2.11369e-07, Final residual = 3.57304e-08, No Iterations 2
GAMG:  Solving for p, Initial residual = 4.02354e-09, Final residual = 4.02354e-09, No Iterations 0
time step continuity errors : sum local = 0.000813891, global = -3.86859e-06, cumulative = 0.156085
ExecutionTime = 299.45 s  ClockTime = 338 s

Time = 404

smoothSolver:  Solving for Ux, Initial residual = 1.62374e-08, Final residual = 1.62374e-08, No Iterations 0
smoothSolver:  Solving for Uy, Initial residual = 1.01221e-07, Final residual = 1.22465e-08, No Iterations 2
smoothSolver:  Solving for Uz, Initial residual = 1.7986e-07, Final residual = 3.20785e-08, No Iterations 2
GAMG:  Solving for p, Initial residual = 5.06972e-09, Final residual = 5.06972e-09, No Iterations 0
time step continuity errors : sum local = 0.00102552, global = 1.42374e-06, cumulative = 0.156087
ExecutionTime = 299.72 s  ClockTime = 339 s

Time = 405

smoothSolver:  Solving for Ux, Initial residual = 1.2915e-08, Final residual = 1.2915e-08, No Iterations 0
smoothSolver:  Solving for Uy, Initial residual = 8.59035e-08, Final residual = 8.59035e-08, No Iterations 0
smoothSolver:  Solving for Uz, Initial residual = 1.55402e-07, Final residual = 2.90227e-08, No Iterations 2
GAMG:  Solving for p, Initial residual = 6.08095e-09, Final residual = 6.08095e-09, No Iterations 0
time step continuity errors : sum local = 0.00123007, global = 3.16868e-06, cumulative = 0.15609
ExecutionTime = 300 s  ClockTime = 339 s

Time = 406

smoothSolver:  Solving for Ux, Initial residual = 1.06026e-08, Final residual = 1.06026e-08, No Iterations 0
smoothSolver:  Solving for Uy, Initial residual = 7.89805e-08, Final residual = 7.89805e-08, No Iterations 0
smoothSolver:  Solving for Uz, Initial residual = 1.35945e-07, Final residual = 2.64045e-08, No Iterations 2
GAMG:  Solving for p, Initial residual = 7.02561e-09, Final residual = 7.02561e-09, No Iterations 0
time step continuity errors : sum local = 0.00142116, global = 4.60123e-06, cumulative = 0.156094
ExecutionTime = 300.26 s  ClockTime = 339 s

Time = 407

smoothSolver:  Solving for Ux, Initial residual = 8.95991e-09, Final residual = 8.95991e-09, No Iterations 0
smoothSolver:  Solving for Uy, Initial residual = 7.38461e-08, Final residual = 7.38461e-08, No Iterations 0
smoothSolver:  Solving for Uz, Initial residual = 1.20227e-07, Final residual = 2.41345e-08, No Iterations 2
GAMG:  Solving for p, Initial residual = 7.88925e-09, Final residual = 7.88925e-09, No Iterations 0
time step continuity errors : sum local = 0.00159586, global = 5.77366e-06, cumulative = 0.1561
ExecutionTime = 300.54 s  ClockTime = 340 s

Time = 408

smoothSolver:  Solving for Ux, Initial residual = 7.76519e-09, Final residual = 7.76519e-09, No Iterations 0
smoothSolver:  Solving for Uy, Initial residual = 7.0027e-08, Final residual = 7.0027e-08, No Iterations 0
smoothSolver:  Solving for Uz, Initial residual = 1.07307e-07, Final residual = 2.21268e-08, No Iterations 2
GAMG:  Solving for p, Initial residual = 8.66876e-09, Final residual = 8.66876e-09, No Iterations 0
time step continuity errors : sum local = 0.00175354, global = 6.7306e-06, cumulative = 0.156107
ExecutionTime = 300.82 s  ClockTime = 340 s

Time = 409

smoothSolver:  Solving for Ux, Initial residual = 6.87498e-09, Final residual = 6.87498e-09, No Iterations 0
smoothSolver:  Solving for Uy, Initial residual = 6.71878e-08, Final residual = 6.71878e-08, No Iterations 0
smoothSolver:  Solving for Uz, Initial residual = 9.65004e-08, Final residual = 9.65004e-08, No Iterations 0
GAMG:  Solving for p, Initial residual = 9.01304e-09, Final residual = 9.01304e-09, No Iterations 0
time step continuity errors : sum local = 0.00182318, global = 7.50953e-06, cumulative = 0.156115
ExecutionTime = 301.1 s  ClockTime = 340 s


SIMPLE solution converged in 409 iterations

End

Finalising parallel run
