/*---------------------------------------------------------------------------*\
| =========                 |                                                 |
| \\      /  F ield         | OpenFOAM: The Open Source CFD Toolbox           |
|  \\    /   O peration     | Version:  5.0                                   |
|   \\  /    A nd           | Web:      www.OpenFOAM.org                      |
|    \\/     M anipulation  |                                                 |
\*---------------------------------------------------------------------------*/
Build  : 5.0
Exec   : topoSet -dict system/topoSetDict3
Date   : Apr 01 2021
Time   : 10:34:40
Host   : "yavin4"
PID    : 6072
I/O    : uncollated
Case   : /home/sole/OpenFOAM/sole-5.0/run/VRFB_OF_tailoring/01_cases/vrfb_elec_tailor_ft_h_f_test
nProcs : 1
sigFpe : Enabling floating point exception trapping (FOAM_SIGFPE).
fileModificationChecking : Monitoring run-time modified files using timeStampMaster (fileModificationSkew 10)
allowSystemOperations : Allowing user-supplied system call operations

// * * * * * * * * * * * * * * * * * * * * * * * * * * * * * * * * * * * * * //
Create time

Create polyMesh for time = 2

Reading topoSetDict

Time = 2
    mesh not changed.
Created cellSet electrodeHole
    Applying source boxToCell
    Adding cells with center within boxes 1((0.001875 0.00145 0) (0.002108 0.001549 0.006))
    cellSet electrodeHole now size 464
Read set cellSet electrodeHole with size 464
    Applying source boxToCell
    Adding cells with center within boxes 1((0.03437 0.00145 0) (0.03462 0.001549 0.006))
    cellSet electrodeHole now size 928
Read set cellZoneSet electrode with size 123569
    Applying source setToCellZone
    Adding all cells from cellSet electrodeHole ...
    cellZoneSet electrode now size 124497
Created cellSet fluidHole
    Applying source boxToCell
    Adding cells with center within boxes 1((0.001875 0.00145 -0.003) (0.002108 0.001549 -0.0005))
    cellSet fluidHole now size 224
Read set cellSet fluidHole with size 224
    Applying source boxToCell
    Adding cells with center within boxes 1((0.03437 0.00145 -0.003) (0.03462 0.001549 -0.0005))
    cellSet fluidHole now size 448
Read set cellZoneSet fluid with size 33906
    Applying source setToCellZone
    Adding all cells from cellSet fluidHole ...
    cellZoneSet fluid now size 34354
Created cellSet intrusionHole
    Applying source boxToCell
    Adding cells with center within boxes 1((0.001875 0.00145 -0.0005) (0.002108 0.001549 0))
    cellSet intrusionHole now size 144
Read set cellSet intrusionHole with size 144
    Applying source boxToCell
    Adding cells with center within boxes 1((0.03437 0.00145 -0.0005) (0.03462 0.001549 0))
    cellSet intrusionHole now size 288
Read set cellZoneSet intrusion with size 16740
    Applying source setToCellZone
    Adding all cells from cellSet intrusionHole ...
    cellZoneSet intrusion now size 17028
Created cellSet holeCellSet
    Applying source cylinderToCell
    Adding cells with centre within cylinder, with p1 = (0.001992 0.0015 -0.003), p2 = (0.001992 0.0015 0.006) and radius = 4e-05
    cellSet holeCellSet now size 208
Read set cellSet holeCellSet with size 208
    Applying source cylinderToCell
    Adding cells with centre within cylinder, with p1 = (0.0345 0.0015 -0.003), p2 = (0.0345 0.0015 0.006) and radius = 4e-05
    cellSet holeCellSet now size 416
Created cellZoneSet holes
    Applying source setToCellZone
    Adding all cells from cellSet holeCellSet ...
    cellZoneSet holes now size 416
Read set cellZoneSet electrode with size 124497
    Applying source setToCellZone
    Removing all cells from cellSet holeCellSet ...
    cellZoneSet electrode now size 124265
Read set cellZoneSet fluid with size 34354
    Applying source setToCellZone
    Removing all cells from cellSet holeCellSet ...
    cellZoneSet fluid now size 34242
Read set cellZoneSet intrusion with size 17028
    Applying source setToCellZone
    Removing all cells from cellSet holeCellSet ...
    cellZoneSet intrusion now size 16956
End

